<?xml version="1.0" encoding="UTF-8"?>

<!-- generated on 2025-08-18 13:44:31.317118 by osmWebWizard.py UNKNOWN
<configuration>
    <net-file value="/home/kulla/Sumo/2025-08-18-13-44-12/osm.net.xml.gz"/>
    <output-trip-file value="/home/kulla/Sumo/2025-08-18-13-44-12/osm.passenger.trips.xml"/>
    <route-file value="/home/kulla/Sumo/2025-08-18-13-44-12/osm.passenger.rou.xml"/>
    <prefix value="veh"/>
    <trip-attributes value="departLane=&quot;best&quot;"/>
    <fringe-start-attributes value="departSpeed=&quot;max&quot;"/>
    <vehicle-class value="passenger"/>
    <lanes value="True"/>
    <fringe-factor value="5"/>
    <allow-fringe.min-length value="1000.0"/>
    <edge-permission value="passenger"/>
    <via-edge-types value="highway.motorway,highway.motorway_link,highway.trunk_link,highway.primary_link,highway.secondary_link,highway.tertiary_link"/>
    <min-distance value="300.0"/>
    <min-distance.fringe value="10.0"/>
    <remove-loops value="True"/>
    <insertion-density value="12.0"/>
</configuration>
-->

<routes xmlns:xsi="http://www.w3.org/2001/XMLSchema-instance" xsi:noNamespaceSchemaLocation="http://sumo.dlr.de/xsd/routes_file.xsd">
    <vType id="veh_passenger" vClass="passenger"/>
    <trip id="veh0" depart="0.00" from="626812554" to="-624302151#1" departLane="best" type="veh_passenger"/>
    <trip id="veh1" depart="0.70" from="448937569#0" to="391007733#0" departLane="best" type="veh_passenger"/>
    <trip id="veh2" depart="1.41" from="635729660#0" to="627918603" departLane="best" type="veh_passenger"/>
    <trip id="veh3" depart="2.11" from="727930377" to="1228643154#1" departLane="best" type="veh_passenger" departSpeed="max"/>
    <trip id="veh4" depart="2.82" from="512918118" to="-627922902" departLane="best" type="veh_passenger"/>
    <trip id="veh5" depart="3.52" from="383281860#1" to="582392193#0" departLane="best" type="veh_passenger"/>
    <trip id="veh6" depart="4.22" from="-626803619" to="34941298" departLane="best" type="veh_passenger"/>
    <trip id="veh7" depart="4.93" from="627326542" to="620225566" departLane="best" type="veh_passenger"/>
    <trip id="veh8" depart="5.63" from="383281862#3" to="620594228" departLane="best" type="veh_passenger"/>
    <trip id="veh9" depart="6.33" from="655138828#1" to="-173243146#1" departLane="best" type="veh_passenger"/>
    <trip id="veh10" depart="7.04" from="476395130" to="175959522" departLane="best" type="veh_passenger"/>
    <trip id="veh11" depart="7.74" from="775888831" to="476393007-AddedOffRampEdge" departLane="best" type="veh_passenger"/>
    <trip id="veh12" depart="8.45" from="1238157022#3-AddedOnRampEdge" to="1328117793" departLane="best" type="veh_passenger"/>
    <trip id="veh13" depart="9.15" from="703357361" to="623692749" departLane="best" type="veh_passenger"/>
    <trip id="veh14" depart="9.85" from="620225566" to="789158564" departLane="best" type="veh_passenger"/>
    <trip id="veh15" depart="10.56" from="479324767" to="620264529" departLane="best" type="veh_passenger"/>
    <trip id="veh16" depart="11.26" from="665471138#1" to="624292846" departLane="best" type="veh_passenger"/>
    <trip id="veh17" depart="11.96" from="708918062" to="620530726" departLane="best" type="veh_passenger"/>
    <trip id="veh18" depart="12.67" from="627998881" to="-646819580" departLane="best" type="veh_passenger"/>
    <trip id="veh19" depart="13.37" from="397426418#0" to="476138603" departLane="best" type="veh_passenger"/>
    <trip id="veh20" depart="14.08" from="1098353819" to="445282966#0" departLane="best" type="veh_passenger"/>
    <trip id="veh21" depart="14.78" from="1328117791#0" to="463494896#0" departLane="best" type="veh_passenger"/>
    <trip id="veh22" depart="15.48" from="626322657" to="478299267" departLane="best" type="veh_passenger"/>
    <trip id="veh23" depart="16.19" from="478302478" to="36500149" departLane="best" type="veh_passenger"/>
    <trip id="veh24" depart="16.89" from="448937542#0" to="75138970#2" departLane="best" type="veh_passenger"/>
    <trip id="veh25" depart="17.59" from="627319899" to="623713565" departLane="best" type="veh_passenger"/>
    <trip id="veh26" depart="18.30" from="22653230#2" to="630109007#1" departLane="best" type="veh_passenger"/>
    <trip id="veh27" depart="19.00" from="197540844" to="479324766" departLane="best" type="veh_passenger"/>
    <trip id="veh28" depart="19.71" from="824564376" to="626319170" departLane="best" type="veh_passenger"/>
    <trip id="veh29" depart="20.41" from="620519866" to="627932542-AddedOffRampEdge" departLane="best" type="veh_passenger"/>
    <trip id="veh30" depart="21.11" from="397459103#0" to="-628174702" departLane="best" type="veh_passenger"/>
    <trip id="veh31" depart="21.82" from="476158178" to="448937557#1" departLane="best" type="veh_passenger"/>
    <trip id="veh32" depart="22.52" from="36499240" to="754210515" departLane="best" type="veh_passenger"/>
    <trip id="veh33" depart="23.22" from="717057840" to="476158180" departLane="best" type="veh_passenger"/>
    <trip id="veh34" depart="23.93" from="74477404" to="536039193#0" departLane="best" type="veh_passenger"/>
    <trip id="veh35" depart="24.63" from="448937464#0" to="445716742#0" departLane="best" type="veh_passenger"/>
    <trip id="veh36" depart="25.34" from="620522277" to="448937543" departLane="best" type="veh_passenger"/>
    <trip id="veh37" depart="26.04" from="479740741#0" to="383281870" departLane="best" type="veh_passenger"/>
    <trip id="veh38" depart="26.74" from="840360859" to="582412253" departLane="best" type="veh_passenger"/>
    <trip id="veh39" depart="27.45" from="1229016424#2" to="-650875393#0" departLane="best" type="veh_passenger"/>
    <trip id="veh40" depart="28.15" from="1336815757" to="624308730" departLane="best" type="veh_passenger"/>
    <trip id="veh41" depart="28.85" from="652031962" to="512918096" departLane="best" type="veh_passenger"/>
    <trip id="veh42" depart="29.56" from="-933703738" to="479325839#2" departLane="best" type="veh_passenger" departSpeed="max"/>
    <trip id="veh43" depart="30.26" from="826877326" to="605235905#1" departLane="best" type="veh_passenger"/>
    <trip id="veh44" depart="30.97" from="-353574245" to="628475140" departLane="best" type="veh_passenger"/>
    <trip id="veh45" depart="31.67" from="627937587" to="618125808#0" departLane="best" type="veh_passenger"/>
    <trip id="veh46" depart="32.37" from="448937542#0" to="626322659#1" departLane="best" type="veh_passenger"/>
    <trip id="veh47" depart="33.08" from="1340576214#1" to="512918155#1" departLane="best" type="veh_passenger"/>
    <trip id="veh48" depart="33.78" from="536039177#0" to="774906811" departLane="best" type="veh_passenger"/>
    <trip id="veh49" depart="34.48" from="717057839" to="448937546#0" departLane="best" type="veh_passenger"/>
    <trip id="veh50" depart="35.19" from="582392190" to="325024324" departLane="best" type="veh_passenger"/>
    <trip id="veh51" depart="35.89" from="743463789#3" to="708818531" departLane="best" type="veh_passenger"/>
    <trip id="veh52" depart="36.60" from="476145601" to="626082264" departLane="best" type="veh_passenger"/>
    <trip id="veh53" depart="37.30" from="624293284" to="175959374" departLane="best" type="veh_passenger"/>
    <trip id="veh54" depart="38.00" from="646621221" to="620211408" departLane="best" type="veh_passenger" departSpeed="max"/>
    <trip id="veh55" depart="38.71" from="649654128" to="616193730" departLane="best" type="veh_passenger"/>
    <trip id="veh56" depart="39.41" from="-1009039134" to="476165178" departLane="best" type="veh_passenger" departSpeed="max"/>
    <trip id="veh57" depart="40.11" from="717440786" to="655172009#1" departLane="best" type="veh_passenger"/>
    <trip id="veh58" depart="40.82" from="476147273" to="-782646603" departLane="best" type="veh_passenger"/>
    <trip id="veh59" depart="41.52" from="717083438" to="758632604#1" departLane="best" type="veh_passenger"/>
    <trip id="veh60" depart="42.23" from="1174205145" to="546170921#0" departLane="best" type="veh_passenger"/>
    <trip id="veh61" depart="42.93" from="1039825493" to="641081343" departLane="best" type="veh_passenger"/>
    <trip id="veh62" depart="43.63" from="646802067" to="167580559#1" departLane="best" type="veh_passenger" departSpeed="max"/>
    <trip id="veh63" depart="44.34" from="539317433" to="620264526" departLane="best" type="veh_passenger"/>
    <trip id="veh64" depart="45.04" from="448937466#0" to="708838656" departLane="best" type="veh_passenger"/>
    <trip id="veh65" depart="45.74" from="620243239" to="630420434" departLane="best" type="veh_passenger"/>
    <trip id="veh66" depart="46.45" from="34934793#0" to="476149338#0" departLane="best" type="veh_passenger"/>
    <trip id="veh67" depart="47.15" from="826790600" to="627307967" departLane="best" type="veh_passenger"/>
    <trip id="veh68" depart="47.86" from="533821481" to="582412275#0" departLane="best" type="veh_passenger"/>
    <trip id="veh69" depart="48.56" from="1416505569" to="397426424" departLane="best" type="veh_passenger"/>
    <trip id="veh70" depart="49.26" from="476393007-AddedOffRampEdge" to="620594227#2" departLane="best" type="veh_passenger"/>
    <trip id="veh71" depart="49.97" from="397459106#0" to="383281896" departLane="best" type="veh_passenger"/>
    <trip id="veh72" depart="50.67" from="1043801534#1" to="624332309" departLane="best" type="veh_passenger"/>
    <trip id="veh73" depart="51.37" from="397459100" to="734822024" departLane="best" type="veh_passenger"/>
    <trip id="veh74" depart="52.08" from="708841667" to="1074709533" departLane="best" type="veh_passenger"/>
    <trip id="veh75" depart="52.78" from="445282966#0" to="627702904" departLane="best" type="veh_passenger"/>
    <trip id="veh76" depart="53.49" from="539309559" to="646730503" departLane="best" type="veh_passenger"/>
    <trip id="veh77" depart="54.19" from="655138220" to="32790032#2" departLane="best" type="veh_passenger"/>
    <trip id="veh78" depart="54.89" from="1308504410" to="512918135#2" departLane="best" type="veh_passenger"/>
    <trip id="veh79" depart="55.60" from="512918123" to="536913656" departLane="best" type="veh_passenger"/>
    <trip id="veh80" depart="56.30" from="635639075" to="627723425#0" departLane="best" type="veh_passenger"/>
    <trip id="veh81" depart="57.01" from="822091337#0" to="1328117800#0" departLane="best" type="veh_passenger"/>
    <trip id="veh82" depart="57.71" from="479743210" to="476395130" departLane="best" type="veh_passenger" departSpeed="max"/>
    <trip id="veh83" depart="58.41" from="708918062" to="445716748" departLane="best" type="veh_passenger"/>
    <trip id="veh84" depart="59.12" from="32776538" to="534632376" departLane="best" type="veh_passenger"/>
    <trip id="veh85" depart="59.82" from="512918118" to="463542798" departLane="best" type="veh_passenger"/>
    <trip id="veh86" depart="60.52" from="445716730" to="74549033" departLane="best" type="veh_passenger"/>
    <trip id="veh87" depart="61.23" from="534630734" to="700184504" departLane="best" type="veh_passenger"/>
    <trip id="veh88" depart="61.93" from="620514212" to="-675932729" departLane="best" type="veh_passenger"/>
    <trip id="veh89" depart="62.64" from="786079112" to="748492246" departLane="best" type="veh_passenger"/>
    <trip id="veh90" depart="63.34" from="704807500" to="22653230#0" departLane="best" type="veh_passenger"/>
    <trip id="veh91" depart="64.04" from="546684913" to="383281857" departLane="best" type="veh_passenger"/>
    <trip id="veh92" depart="64.75" from="479743210" to="-788822053" departLane="best" type="veh_passenger" departSpeed="max"/>
    <trip id="veh93" depart="65.45" from="479324767" to="823708587" departLane="best" type="veh_passenger"/>
    <trip id="veh94" depart="66.15" from="536039193#0" to="512918111" departLane="best" type="veh_passenger"/>
    <trip id="veh95" depart="66.86" from="775888831" to="828670751" departLane="best" type="veh_passenger"/>
    <trip id="veh96" depart="67.56" from="175052985" to="476145602" departLane="best" type="veh_passenger"/>
    <trip id="veh97" depart="68.27" from="785346522#1" to="620532294" departLane="best" type="veh_passenger"/>
    <trip id="veh98" depart="68.97" from="-737644893" to="620557606" departLane="best" type="veh_passenger"/>
    <trip id="veh99" depart="69.67" from="582412242" to="669636104" departLane="best" type="veh_passenger"/>
    <trip id="veh100" depart="70.38" from="175840054#1" to="776406113" departLane="best" type="veh_passenger"/>
    <trip id="veh101" depart="71.08" from="1098353820#1" to="32776104" departLane="best" type="veh_passenger"/>
    <trip id="veh102" depart="71.78" from="623698864" to="627918598" departLane="best" type="veh_passenger"/>
    <trip id="veh103" depart="72.49" from="445282963#0" to="160443491#3" departLane="best" type="veh_passenger"/>
    <trip id="veh104" depart="73.19" from="724907122" to="445716738" departLane="best" type="veh_passenger" departSpeed="max"/>
    <trip id="veh105" depart="73.90" from="623698863" to="624293284" departLane="best" type="veh_passenger"/>
    <trip id="veh106" depart="74.60" from="512918099" to="620557603" departLane="best" type="veh_passenger" departSpeed="max"/>
    <trip id="veh107" depart="75.30" from="605235905#1" to="75138964" departLane="best" type="veh_passenger"/>
    <trip id="veh108" depart="76.01" from="627918604" to="476147257" departLane="best" type="veh_passenger"/>
    <trip id="veh109" depart="76.71" from="476158179" to="635729660#0" departLane="best" type="veh_passenger"/>
    <trip id="veh110" depart="77.41" from="1059905872" to="536039191#0" departLane="best" type="veh_passenger"/>
    <trip id="veh111" depart="78.12" from="847953070" to="829068637#0" departLane="best" type="veh_passenger"/>
    <trip id="veh112" depart="78.82" from="1074709533" to="383281853" departLane="best" type="veh_passenger"/>
    <trip id="veh113" depart="79.53" from="448937466#0" to="74981354" departLane="best" type="veh_passenger"/>
    <trip id="veh114" depart="80.23" from="717446180" to="711645501" departLane="best" type="veh_passenger"/>
    <trip id="veh115" depart="80.93" from="478302475" to="190451325" departLane="best" type="veh_passenger"/>
    <trip id="veh116" depart="81.64" from="670834173-AddedOffRampEdge" to="627983390" departLane="best" type="veh_passenger"/>
    <trip id="veh117" depart="82.34" from="627663850" to="-230646711" departLane="best" type="veh_passenger"/>
    <trip id="veh118" depart="83.04" from="655621382" to="476145608" departLane="best" type="veh_passenger"/>
    <trip id="veh119" depart="83.75" from="627700575" to="751787525" departLane="best" type="veh_passenger"/>
    <trip id="veh120" depart="84.45" from="167580558" to="1408317016" departLane="best" type="veh_passenger" departSpeed="max"/>
    <trip id="veh121" depart="85.16" from="1336780885#0" to="620272655" departLane="best" type="veh_passenger"/>
    <trip id="veh122" depart="85.86" from="448937557#1" to="623698863" departLane="best" type="veh_passenger"/>
    <trip id="veh123" depart="86.56" from="626082264" to="448937547#0" departLane="best" type="veh_passenger"/>
    <trip id="veh124" depart="87.27" from="582303261" to="734822024" departLane="best" type="veh_passenger"/>
    <trip id="veh125" depart="87.97" from="701651543#0" to="1293567104#0" departLane="best" type="veh_passenger"/>
    <trip id="veh126" depart="88.67" from="512918123" to="450938289#9" departLane="best" type="veh_passenger"/>
    <trip id="veh127" depart="89.38" from="626538765" to="448937541#0" departLane="best" type="veh_passenger"/>
    <trip id="veh128" depart="90.08" from="640003723" to="620264529" departLane="best" type="veh_passenger"/>
    <trip id="veh129" depart="90.79" from="1098348941#0" to="715617341" departLane="best" type="veh_passenger"/>
    <trip id="veh130" depart="91.49" from="737478205" to="620225567" departLane="best" type="veh_passenger"/>
    <trip id="veh131" depart="92.19" from="673245173" to="620546640" departLane="best" type="veh_passenger"/>
    <trip id="veh132" depart="92.90" from="174886203#1" to="166721999" departLane="best" type="veh_passenger"/>
    <trip id="veh133" depart="93.60" from="476147274" to="718284956" departLane="best" type="veh_passenger"/>
    <trip id="veh134" depart="94.30" from="736677855#0" to="36500155" departLane="best" type="veh_passenger"/>
    <trip id="veh135" depart="95.01" from="445716728" to="1336780885#0" departLane="best" type="veh_passenger"/>
    <trip id="veh136" depart="95.71" from="649787121" to="715626227#1" departLane="best" type="veh_passenger" departSpeed="max"/>
    <trip id="veh137" depart="96.42" from="479746259" to="624293835#1" departLane="best" type="veh_passenger"/>
    <trip id="veh138" depart="97.12" from="175052984" to="74962075" departLane="best" type="veh_passenger"/>
    <trip id="veh139" depart="97.82" from="711607740" to="794620752" departLane="best" type="veh_passenger" departSpeed="max"/>
    <trip id="veh140" depart="98.53" from="-623701747" to="633589043" departLane="best" type="veh_passenger"/>
    <trip id="veh141" depart="99.23" from="476389381" to="74963927#0" departLane="best" type="veh_passenger"/>
    <trip id="veh142" depart="99.93" from="652543423" to="701651543#0" departLane="best" type="veh_passenger"/>
    <trip id="veh143" depart="100.64" from="655149201" to="448937555" departLane="best" type="veh_passenger"/>
    <trip id="veh144" depart="101.34" from="651917759#1" to="1340576219" departLane="best" type="veh_passenger"/>
    <trip id="veh145" depart="102.05" from="715627057" to="689861251" departLane="best" type="veh_passenger" departSpeed="max"/>
    <trip id="veh146" depart="102.75" from="383281870" to="652357028#1" departLane="best" type="veh_passenger"/>
    <trip id="veh147" depart="103.45" from="536420696#1" to="476147272" departLane="best" type="veh_passenger"/>
    <trip id="veh148" depart="104.16" from="652253266" to="397464764#0-AddedOffRampEdge" departLane="best" type="veh_passenger"/>
    <trip id="veh149" depart="104.86" from="-580377295" to="33194100#0" departLane="best" type="veh_passenger" departSpeed="max"/>
    <trip id="veh150" depart="105.56" from="476166956" to="701651543#1" departLane="best" type="veh_passenger"/>
    <trip id="veh151" depart="106.27" from="801450694#0" to="617971385" departLane="best" type="veh_passenger"/>
    <trip id="veh152" depart="106.97" from="754136151" to="1408285847" departLane="best" type="veh_passenger"/>
    <trip id="veh153" depart="107.68" from="786426502" to="325024324" departLane="best" type="veh_passenger"/>
    <trip id="veh154" depart="108.38" from="780092335" to="448937552#0" departLane="best" type="veh_passenger"/>
    <trip id="veh155" depart="109.08" from="1336780888#2" to="512918155#0" departLane="best" type="veh_passenger"/>
    <trip id="veh156" depart="109.79" from="635103476" to="476158178" departLane="best" type="veh_passenger"/>
    <trip id="veh157" depart="110.49" from="624291892" to="582412257" departLane="best" type="veh_passenger"/>
    <trip id="veh158" depart="111.20" from="479326882" to="620530725" departLane="best" type="veh_passenger"/>
    <trip id="veh159" depart="111.90" from="445716750#0" to="627992332" departLane="best" type="veh_passenger"/>
    <trip id="veh160" depart="112.60" from="-129850270" to="74668481" departLane="best" type="veh_passenger"/>
    <trip id="veh161" depart="113.31" from="476720121" to="1059905872" departLane="best" type="veh_passenger"/>
    <trip id="veh162" depart="114.01" from="627702905" to="476389380#1" departLane="best" type="veh_passenger"/>
    <trip id="veh163" depart="114.71" from="476149340#0" to="663986495" departLane="best" type="veh_passenger"/>
    <trip id="veh164" depart="115.42" from="630420434" to="476147257" departLane="best" type="veh_passenger"/>
    <trip id="veh165" depart="116.12" from="476148403" to="479746931" departLane="best" type="veh_passenger"/>
    <trip id="veh166" depart="116.83" from="479743210" to="476145598" departLane="best" type="veh_passenger" departSpeed="max"/>
    <trip id="veh167" depart="117.53" from="166522987" to="512918079" departLane="best" type="veh_passenger"/>
    <trip id="veh168" depart="118.23" from="754142145" to="627919526" departLane="best" type="veh_passenger"/>
    <trip id="veh169" depart="118.94" from="736724376" to="624291890" departLane="best" type="veh_passenger" departSpeed="max"/>
    <trip id="veh170" depart="119.64" from="476145608" to="620238002" departLane="best" type="veh_passenger"/>
    <trip id="veh171" depart="120.34" from="-1009039134" to="475921346#0" departLane="best" type="veh_passenger" departSpeed="max"/>
    <trip id="veh172" depart="121.05" from="512918152" to="620536508" departLane="best" type="veh_passenger"/>
    <trip id="veh173" depart="121.75" from="627663851" to="536420723" departLane="best" type="veh_passenger"/>
    <trip id="veh174" depart="122.46" from="534630673" to="383281857" departLane="best" type="veh_passenger"/>
    <trip id="veh175" depart="123.16" from="539309568#0" to="724076802" departLane="best" type="veh_passenger"/>
    <trip id="veh176" depart="123.86" from="652256616" to="257750351" departLane="best" type="veh_passenger"/>
    <trip id="veh177" depart="124.57" from="1152354275" to="582412270" departLane="best" type="veh_passenger"/>
    <trip id="veh178" depart="125.27" from="655627157" to="635716873" departLane="best" type="veh_passenger"/>
    <trip id="veh179" depart="125.97" from="627920190" to="397426424" departLane="best" type="veh_passenger"/>
    <trip id="veh180" depart="126.68" from="34403022#1" to="-623701747" departLane="best" type="veh_passenger"/>
    <trip id="veh181" depart="127.38" from="445716679#0" to="539267637" departLane="best" type="veh_passenger"/>
    <trip id="veh182" depart="128.09" from="704824587" to="1098348941#0" departLane="best" type="veh_passenger"/>
    <trip id="veh183" depart="128.79" from="512918071#0" to="624318909" departLane="best" type="veh_passenger"/>
    <trip id="veh184" depart="129.49" from="32791951" to="627969440" departLane="best" type="veh_passenger"/>
    <trip id="veh185" depart="130.20" from="582303307#0" to="445716727" departLane="best" type="veh_passenger"/>
    <trip id="veh186" depart="130.90" from="627663854" to="-159051162" departLane="best" type="veh_passenger"/>
    <trip id="veh187" depart="131.60" from="1330109053" to="512918118" departLane="best" type="veh_passenger"/>
    <trip id="veh188" depart="132.31" from="582412286#0" to="-675932729" departLane="best" type="veh_passenger"/>
    <trip id="veh189" depart="133.01" from="445716728" to="665471135" departLane="best" type="veh_passenger"/>
    <trip id="veh190" depart="133.72" from="536039203" to="649801637" departLane="best" type="veh_passenger"/>
    <trip id="veh191" depart="134.42" from="627720280" to="824472386#0" departLane="best" type="veh_passenger"/>
    <trip id="veh192" depart="135.12" from="623698864" to="761362869" departLane="best" type="veh_passenger"/>
    <trip id="veh193" depart="135.83" from="726067422" to="623718345" departLane="best" type="veh_passenger"/>
    <trip id="veh194" depart="136.53" from="630157536" to="582392192" departLane="best" type="veh_passenger"/>
    <trip id="veh195" depart="137.23" from="666880509" to="620238002" departLane="best" type="veh_passenger"/>
    <trip id="veh196" depart="137.94" from="734822024" to="635103476" departLane="best" type="veh_passenger"/>
    <trip id="veh197" depart="138.64" from="539310356#2" to="448937462#0" departLane="best" type="veh_passenger"/>
    <trip id="veh198" depart="139.35" from="445716717" to="626082262" departLane="best" type="veh_passenger"/>
    <trip id="veh199" depart="140.05" from="646802067" to="582412284#0" departLane="best" type="veh_passenger" departSpeed="max"/>
    <trip id="veh200" depart="140.75" from="624953414" to="450938289#12" departLane="best" type="veh_passenger"/>
    <trip id="veh201" depart="141.46" from="1098348950#0" to="475921344" departLane="best" type="veh_passenger"/>
    <trip id="veh202" depart="142.16" from="448937556" to="476162285" departLane="best" type="veh_passenger"/>
    <trip id="veh203" depart="142.86" from="620263126" to="174886158#3" departLane="best" type="veh_passenger"/>
    <trip id="veh204" depart="143.57" from="397464764#0-AddedOffRampEdge" to="627967103" departLane="best" type="veh_passenger"/>
    <trip id="veh205" depart="144.27" from="479746932" to="620220490" departLane="best" type="veh_passenger"/>
    <trip id="veh206" depart="144.98" from="512918076" to="36499235" departLane="best" type="veh_passenger"/>
    <trip id="veh207" depart="145.68" from="512918105" to="732225198" departLane="best" type="veh_passenger"/>
    <trip id="veh208" depart="146.38" from="623294903" to="627967106" departLane="best" type="veh_passenger"/>
    <trip id="veh209" depart="147.09" from="708819911" to="641155295" departLane="best" type="veh_passenger"/>
    <trip id="veh210" depart="147.79" from="479325839#2" to="-159051162" departLane="best" type="veh_passenger"/>
    <trip id="veh211" depart="148.49" from="476692295" to="636849865" departLane="best" type="veh_passenger"/>
    <trip id="veh212" depart="149.20" from="704907797" to="774889946" departLane="best" type="veh_passenger" departSpeed="max"/>
    <trip id="veh213" depart="149.90" from="512918099" to="635679590" departLane="best" type="veh_passenger" departSpeed="max"/>
    <trip id="veh214" depart="150.61" from="620278849" to="623692747" departLane="best" type="veh_passenger"/>
    <trip id="veh215" depart="151.31" from="383281862#3" to="383281870" departLane="best" type="veh_passenger"/>
    <trip id="veh216" depart="152.01" from="512918241" to="-627681394" departLane="best" type="veh_passenger"/>
    <trip id="veh217" depart="152.72" from="476393002#1" to="627920413" departLane="best" type="veh_passenger"/>
    <trip id="veh218" depart="153.42" from="479745786" to="22652794" departLane="best" type="veh_passenger"/>
    <trip id="veh219" depart="154.12" from="538270318" to="166722000" departLane="best" type="veh_passenger" departSpeed="max"/>
    <trip id="veh220" depart="154.83" from="624601498" to="-627064058" departLane="best" type="veh_passenger"/>
    <trip id="veh221" depart="155.53" from="-626832746" to="626600768" departLane="best" type="veh_passenger"/>
    <trip id="veh222" depart="156.24" from="173243146#1" to="536039223" departLane="best" type="veh_passenger"/>
    <trip id="veh223" depart="156.94" from="-651841444" to="479324766" departLane="best" type="veh_passenger"/>
    <trip id="veh224" depart="157.64" from="36500150" to="476166955" departLane="best" type="veh_passenger" departSpeed="max"/>
    <trip id="veh225" depart="158.35" from="646138487#1" to="655172009#2" departLane="best" type="veh_passenger"/>
    <trip id="veh226" depart="159.05" from="445716745" to="1159349481#0" departLane="best" type="veh_passenger"/>
    <trip id="veh227" depart="159.75" from="991457909#0" to="476689637" departLane="best" type="veh_passenger"/>
    <trip id="veh228" depart="160.46" from="627330445" to="638258031" departLane="best" type="veh_passenger"/>
    <trip id="veh229" depart="161.16" from="760452668" to="34941308" departLane="best" type="veh_passenger"/>
    <trip id="veh230" depart="161.87" from="-479740741#1" to="175840054#1" departLane="best" type="veh_passenger"/>
    <trip id="veh231" depart="162.57" from="166522985#0" to="627705289" departLane="best" type="veh_passenger"/>
    <trip id="veh232" depart="163.27" from="620524555" to="383281864" departLane="best" type="veh_passenger"/>
    <trip id="veh233" depart="163.98" from="627985762" to="644432259" departLane="best" type="veh_passenger"/>
    <trip id="veh234" depart="164.68" from="218215304#2" to="623709161" departLane="best" type="veh_passenger"/>
    <trip id="veh235" depart="165.39" from="644627265#1" to="1408285845" departLane="best" type="veh_passenger"/>
    <trip id="veh236" depart="166.09" from="1336780888#0" to="-624953414" departLane="best" type="veh_passenger"/>
    <trip id="veh237" depart="166.79" from="476148411" to="627919526" departLane="best" type="veh_passenger"/>
    <trip id="veh238" depart="167.50" from="627969440" to="624303949" departLane="best" type="veh_passenger"/>
    <trip id="veh239" depart="168.20" from="704840581" to="623644756" departLane="best" type="veh_passenger"/>
    <trip id="veh240" depart="168.90" from="1416505569" to="823685682#0" departLane="best" type="veh_passenger"/>
    <trip id="veh241" depart="169.61" from="649801567" to="476440473" departLane="best" type="veh_passenger"/>
    <trip id="veh242" depart="170.31" from="512918143" to="478312418#0" departLane="best" type="veh_passenger"/>
    <trip id="veh243" depart="171.02" from="582412254" to="476400642" departLane="best" type="veh_passenger"/>
    <trip id="veh244" depart="171.72" from="704824587" to="654240973" departLane="best" type="veh_passenger"/>
    <trip id="veh245" depart="172.42" from="1328117810" to="780092334" departLane="best" type="veh_passenger"/>
    <trip id="veh246" depart="173.13" from="626319170" to="655148387" departLane="best" type="veh_passenger"/>
    <trip id="veh247" depart="173.83" from="635691794" to="784677738" departLane="best" type="veh_passenger"/>
    <trip id="veh248" depart="174.53" from="620236890" to="543339230#1" departLane="best" type="veh_passenger"/>
    <trip id="veh249" depart="175.24" from="512918240" to="630425322" departLane="best" type="veh_passenger"/>
    <trip id="veh250" depart="175.94" from="666954913" to="1228643154#0" departLane="best" type="veh_passenger"/>
    <trip id="veh251" depart="176.65" from="717446182" to="445716727" departLane="best" type="veh_passenger"/>
    <trip id="veh252" depart="177.35" from="536982254" to="623713568" departLane="best" type="veh_passenger"/>
    <trip id="veh253" depart="178.05" from="479324767" to="-627676747" departLane="best" type="veh_passenger"/>