<?xml version="1.0" encoding="UTF-8"?>

<!-- generated on 2025-08-18 13:54:46.255890 by osmWebWizard.py v1_23_1+0000-676720d13f6
<configuration>
    <net-file value="C:\Users\Natsakon\Sumo\2025-08-18-13-54-21\osm.net.xml.gz"/>
    <output-trip-file value="C:\Users\Natsakon\Sumo\2025-08-18-13-54-21\osm.passenger.trips.xml"/>
    <route-file value="C:\Users\Natsakon\Sumo\2025-08-18-13-54-21\osm.passenger.rou.xml"/>
    <prefix value="veh"/>
    <trip-attributes value="departLane=&quot;best&quot;"/>
    <fringe-start-attributes value="departSpeed=&quot;max&quot;"/>
    <vehicle-class value="passenger"/>
    <lanes value="True"/>
    <fringe-factor value="5"/>
    <allow-fringe.min-length value="1000.0"/>
    <edge-permission value="passenger"/>
    <via-edge-types value="highway.motorway,highway.motorway_link,highway.trunk_link,highway.primary_link,highway.secondary_link,highway.tertiary_link"/>
    <min-distance value="300.0"/>
    <min-distance.fringe value="10.0"/>
    <remove-loops value="True"/>
    <validate value="True"/>
    <insertion-density value="12.0"/>
</configuration>
-->

<routes xmlns:xsi="http://www.w3.org/2001/XMLSchema-instance" xsi:noNamespaceSchemaLocation="http://sumo.dlr.de/xsd/routes_file.xsd">
    <vType id="veh_passenger" vClass="passenger"/>
    <trip id="veh0" depart="0.00" from="300644153#0" to="-130837933#2" departLane="best" type="veh_passenger"/>
    <trip id="veh1" depart="1.00" from="-696534015" to="-457444362" departLane="best" type="veh_passenger"/>
    <trip id="veh2" depart="2.00" from="688752799#0" to="47484438" departLane="best" type="veh_passenger"/>
    <trip id="veh3" depart="2.99" from="701937782#0" to="-20261961#0" departLane="best" type="veh_passenger"/>
    <trip id="veh4" depart="3.99" from="130820269#0" to="-134369588#1" departLane="best" type="veh_passenger" departSpeed="max"/>
    <trip id="veh5" depart="4.99" from="-635483486#6" to="19978070#3" departLane="best" type="veh_passenger"/>
    <trip id="veh6" depart="5.99" from="-1290133351" to="-342881869#19" departLane="best" type="veh_passenger" departSpeed="max"/>
    <trip id="veh7" depart="6.99" from="324499092" to="22882548#0" departLane="best" type="veh_passenger"/>
    <trip id="veh8" depart="7.99" from="-641451995" to="253934429#0" departLane="best" type="veh_passenger" departSpeed="max"/>
    <trip id="veh9" depart="8.98" from="692333610#0" to="-1155418505" departLane="best" type="veh_passenger"/>
    <trip id="veh10" depart="9.98" from="691529216#8" to="641148612" departLane="best" type="veh_passenger"/>
    <trip id="veh11" depart="10.98" from="-90447845#4" to="-250699722#4" departLane="best" type="veh_passenger" departSpeed="max"/>
    <trip id="veh12" depart="11.98" from="90564614#4" to="-90447857" departLane="best" type="veh_passenger"/>
    <trip id="veh13" depart="12.98" from="-22376427#5" to="-22758909#7" departLane="best" type="veh_passenger"/>
    <trip id="veh14" depart="13.97" from="691530623#3" to="688956452#5" departLane="best" type="veh_passenger"/>
    <trip id="veh15" depart="14.97" from="21992504#0" to="927489682" departLane="best" type="veh_passenger"/>
    <trip id="veh16" depart="15.97" from="-927593033" to="22943166#0" departLane="best" type="veh_passenger" departSpeed="max"/>
    <trip id="veh17" depart="16.97" from="696529202#0" to="24028276#3" departLane="best" type="veh_passenger"/>
    <trip id="veh18" depart="17.97" from="47484426#0" to="-148886353#1" departLane="best" type="veh_passenger"/>
    <trip id="veh19" depart="18.97" from="-642093119" to="-699538610#3" departLane="best" type="veh_passenger" departSpeed="max"/>
    <trip id="veh20" depart="19.96" from="-19876063#1" to="-54780909#0" departLane="best" type="veh_passenger"/>
    <trip id="veh21" depart="20.96" from="-22882538#1" to="-696723066#1" departLane="best" type="veh_passenger"/>
    <trip id="veh22" depart="21.96" from="276725915" to="-927558551" departLane="best" type="veh_passenger" departSpeed="max"/>
    <trip id="veh23" depart="22.96" from="-927134034" to="-38434952" departLane="best" type="veh_passenger" departSpeed="max"/>
    <trip id="veh24" depart="23.96" from="-696192799#1" to="90447839#1" departLane="best" type="veh_passenger"/>
    <trip id="veh25" depart="24.95" from="323014717" to="27575545#0" departLane="best" type="veh_passenger" departSpeed="max"/>
    <trip id="veh26" depart="25.95" from="-302852024#3" to="-961258411" departLane="best" type="veh_passenger"/>
    <trip id="veh27" depart="26.95" from="961259647" to="36812785#6" departLane="best" type="veh_passenger" departSpeed="max"/>
    <trip id="veh28" depart="27.95" from="22943113#0" to="55692095#2" departLane="best" type="veh_passenger" departSpeed="max"/>
    <trip id="veh29" depart="28.95" from="695717814#1" to="690320638#1" departLane="best" type="veh_passenger"/>
    <trip id="veh30" depart="29.95" from="-642102306" to="-1351121542#6" departLane="best" type="veh_passenger" departSpeed="max"/>
    <trip id="veh31" depart="30.94" from="-88308866#1" to="-695502505" departLane="best" type="veh_passenger"/>
    <trip id="veh32" depart="31.94" from="-55692096#1" to="90447852#0" departLane="best" type="veh_passenger"/>
    <trip id="veh33" depart="32.94" from="697214214#2" to="-88308811#1" departLane="best" type="veh_passenger"/>
    <trip id="veh34" depart="33.94" from="331472257" to="1149827807" departLane="best" type="veh_passenger" departSpeed="max"/>
    <trip id="veh35" depart="34.94" from="79890305" to="14618089#2" departLane="best" type="veh_passenger"/>
    <trip id="veh36" depart="35.93" from="-695663066" to="-669051631" departLane="best" type="veh_passenger"/>
    <trip id="veh37" depart="36.93" from="22943251#4" to="-691529216#4" departLane="best" type="veh_passenger"/>
    <trip id="veh38" depart="37.93" from="238834863" to="789197903#6" departLane="best" type="veh_passenger" departSpeed="max"/>
    <trip id="veh39" depart="38.93" from="1127432025" to="-421600465" departLane="best" type="veh_passenger"/>
    <trip id="veh40" depart="39.93" from="97690869#0" to="199954902#1" departLane="best" type="veh_passenger" departSpeed="max"/>
    <trip id="veh41" depart="40.93" from="-21024531" to="-164438339#0" departLane="best" type="veh_passenger"/>
    <trip id="veh42" depart="41.92" from="690320609" to="1290133352" departLane="best" type="veh_passenger"/>
    <trip id="veh43" depart="42.92" from="-170930829#2" to="-964568154" departLane="best" type="veh_passenger"/>
    <trip id="veh44" depart="43.92" from="97690869#0" to="21262382#2" departLane="best" type="veh_passenger" departSpeed="max"/>
    <trip id="veh45" depart="44.92" from="927555091" to="697026697" departLane="best" type="veh_passenger" departSpeed="max"/>
    <trip id="veh46" depart="45.92" from="-1205368122" to="688946350#0" departLane="best" type="veh_passenger" departSpeed="max"/>
    <trip id="veh47" depart="46.91" from="385508912#0" to="22758909#5" departLane="best" type="veh_passenger"/>
    <trip id="veh48" depart="47.91" from="-696192799#0" to="381425895#2" departLane="best" type="veh_passenger"/>
    <trip id="veh49" depart="48.91" from="-22943211#3" to="130830296#5" departLane="best" type="veh_passenger"/>
    <trip id="veh50" depart="49.91" from="1419045825#1" to="90447871#1" departLane="best" type="veh_passenger"/>
    <trip id="veh51" depart="50.91" from="697206812#0" to="-691529216#5" departLane="best" type="veh_passenger"/>
    <trip id="veh52" depart="51.91" from="19870098#5" to="-287103785" departLane="best" type="veh_passenger"/>
    <trip id="veh53" depart="52.90" from="79890281" to="698771381" departLane="best" type="veh_passenger" departSpeed="max"/>
    <trip id="veh54" depart="53.90" from="-75608978#1" to="36812785#17" departLane="best" type="veh_passenger"/>
    <trip id="veh55" depart="54.90" from="255318220#0" to="-243118981#0" departLane="best" type="veh_passenger" departSpeed="max"/>
    <trip id="veh56" depart="55.90" from="689012456#1" to="22802800#0" departLane="best" type="veh_passenger"/>
    <trip id="veh57" depart="56.90" from="689207005#1" to="21992504#0" departLane="best" type="veh_passenger"/>
    <trip id="veh58" depart="57.89" from="-1028906331#3" to="-90424407#1" departLane="best" type="veh_passenger"/>
    <trip id="veh59" depart="58.89" from="-1237215042#3" to="90447814" departLane="best" type="veh_passenger"/>
    <trip id="veh60" depart="59.89" from="697842141" to="696176463#0" departLane="best" type="veh_passenger"/>
    <trip id="veh61" depart="60.89" from="-848395920" to="-193116149" departLane="best" type="veh_passenger" departSpeed="max"/>
    <trip id="veh62" depart="61.89" from="697831506#0" to="90447860#1" departLane="best" type="veh_passenger"/>
    <trip id="veh63" depart="62.89" from="-200132438#0" to="19820704#0" departLane="best" type="veh_passenger"/>
    <trip id="veh64" depart="63.88" from="-193297054#1" to="689753508" departLane="best" type="veh_passenger" departSpeed="max"/>
    <trip id="veh65" depart="64.88" from="689155541#0" to="-23784448#2" departLane="best" type="veh_passenger" departSpeed="max"/>
    <trip id="veh66" depart="65.88" from="193289760" to="22943108" departLane="best" type="veh_passenger" departSpeed="max"/>
    <trip id="veh67" depart="66.88" from="-695727398" to="699538611#0" departLane="best" type="veh_passenger"/>
    <trip id="veh68" depart="67.88" from="22376433#3" to="688956452#5" departLane="best" type="veh_passenger"/>
    <trip id="veh69" depart="68.87" from="-457406888" to="-79895500#3" departLane="best" type="veh_passenger" departSpeed="max"/>
    <trip id="veh70" depart="69.87" from="97014593" to="38429645" departLane="best" type="veh_passenger"/>
    <trip id="veh71" depart="70.87" from="134369588#0" to="20261961#0" departLane="best" type="veh_passenger" departSpeed="max"/>
    <trip id="veh72" depart="71.87" from="-23311564#6" to="-460247949#1" departLane="best" type="veh_passenger"/>
    <trip id="veh73" depart="72.87" from="-90447840#4" to="250699717#2" departLane="best" type="veh_passenger" departSpeed="max"/>
    <trip id="veh74" depart="73.87" from="-642102307#4" to="-423032605" departLane="best" type="veh_passenger" departSpeed="max"/>
    <trip id="veh75" depart="74.86" from="-19821233#1" to="342881869#7" departLane="best" type="veh_passenger"/>
    <trip id="veh76" depart="75.86" from="-642102306" to="848395848" departLane="best" type="veh_passenger" departSpeed="max"/>
    <trip id="veh77" depart="76.86" from="696489863" to="-19822393#1" departLane="best" type="veh_passenger"/>
    <trip id="veh78" depart="77.86" from="-684702551#1" to="457406888" departLane="best" type="veh_passenger" departSpeed="max"/>
    <trip id="veh79" depart="78.86" from="90447827" to="235769649#2" departLane="best" type="veh_passenger"/>
    <trip id="veh80" depart="79.85" from="192219555#1" to="691530623#0" departLane="best" type="veh_passenger"/>
    <trip id="veh81" depart="80.85" from="691530624#0" to="-324506881" departLane="best" type="veh_passenger"/>
    <trip id="veh82" depart="81.85" from="-22758905#2" to="130822232#2" departLane="best" type="veh_passenger"/>
    <trip id="veh83" depart="82.85" from="635485290#1" to="47484427" departLane="best" type="veh_passenger"/>
    <trip id="veh84" depart="83.85" from="927688511" to="-22802797#2" departLane="best" type="veh_passenger" departSpeed="max"/>
    <trip id="veh85" depart="84.85" from="1155418505" to="-90447863#4" departLane="best" type="veh_passenger" departSpeed="max"/>
    <trip id="veh86" depart="85.84" from="-38429650" to="137068406" departLane="best" type="veh_passenger" departSpeed="max"/>
    <trip id="veh87" depart="86.84" from="130820269#0" to="-696739657#1" departLane="best" type="veh_passenger" departSpeed="max"/>
    <trip id="veh88" depart="87.84" from="-689156360" to="90424405" departLane="best" type="veh_passenger" departSpeed="max"/>
    <trip id="veh89" depart="88.84" from="1371609534#0" to="697041762#0" departLane="best" type="veh_passenger" departSpeed="max"/>
    <trip id="veh90" depart="89.84" from="22882566#0" to="-170345933" departLane="best" type="veh_passenger" departSpeed="max"/>
    <trip id="veh91" depart="90.83" from="97690902#0" to="696248312#3" departLane="best" type="veh_passenger"/>
    <trip id="veh92" depart="91.83" from="927542452" to="90424408#1" departLane="best" type="veh_passenger" departSpeed="max"/>
    <trip id="veh93" depart="92.83" from="696184906" to="-266301703" departLane="best" type="veh_passenger"/>
    <trip id="veh94" depart="93.83" from="19793641#7" to="-395857693#0" departLane="best" type="veh_passenger"/>
    <trip id="veh95" depart="94.83" from="115131707" to="-193289760" departLane="best" type="veh_passenger"/>
    <trip id="veh96" depart="95.83" from="-927593033" to="927675040" departLane="best" type="veh_passenger" departSpeed="max"/>
    <trip id="veh97" depart="96.82" from="-695727399#1" to="691529216#8" departLane="best" type="veh_passenger"/>
    <trip id="veh98" depart="97.82" from="1419295011" to="1290133353" departLane="best" type="veh_passenger"/>
    <trip id="veh99" depart="98.82" from="91092564#0" to="965528711#0" departLane="best" type="veh_passenger"/>
    <trip id="veh100" depart="99.82" from="22882806#0" to="688930921#0" departLane="best" type="veh_passenger"/>
    <trip id="veh101" depart="100.82" from="-263951134" to="-71381508#1" departLane="best" type="veh_passenger" departSpeed="max"/>
    <trip id="veh102" depart="101.81" from="927529955#0" to="24028408#0" departLane="best" type="veh_passenger" departSpeed="max"/>
    <trip id="veh103" depart="102.81" from="22758905#0" to="689156360" departLane="best" type="veh_passenger"/>
    <trip id="veh104" depart="103.81" from="-148818702#4" to="243118974#1" departLane="best" type="veh_passenger"/>
    <trip id="veh105" depart="104.81" from="-269499249#2" to="90447893#0" departLane="best" type="veh_passenger"/>
    <trip id="veh106" depart="105.81" from="-19977502#0" to="-320599202" departLane="best" type="veh_passenger"/>
    <trip id="veh107" depart="106.81" from="24028719" to="47484434#2" departLane="best" type="veh_passenger" departSpeed="max"/>
    <trip id="veh108" depart="107.80" from="-656882634" to="-23025882#5" departLane="best" type="veh_passenger" departSpeed="max"/>
    <trip id="veh109" depart="108.80" from="24028719" to="319826220#0" departLane="best" type="veh_passenger" departSpeed="max"/>
    <trip id="veh110" depart="109.80" from="1278964459" to="243118974#1" departLane="best" type="veh_passenger"/>
    <trip id="veh111" depart="110.80" from="20261961#1" to="90447833#1" departLane="best" type="veh_passenger"/>
    <trip id="veh112" depart="111.80" from="-47484429" to="688758273#1" departLane="best" type="veh_passenger" departSpeed="max"/>
    <trip id="veh113" depart="112.79" from="-688758271#6" to="1149827807" departLane="best" type="veh_passenger"/>
    <trip id="veh114" depart="113.79" from="38429628#0" to="-743764375#5" departLane="best" type="veh_passenger"/>
    <trip id="veh115" depart="114.79" from="-88308870#1" to="689206997" departLane="best" type="veh_passenger" departSpeed="max"/>
    <trip id="veh116" depart="115.79" from="-19821525#2" to="145395107" departLane="best" type="veh_passenger"/>
    <trip id="veh117" depart="116.79" from="97690869#1" to="965528711#2" departLane="best" type="veh_passenger"/>
    <trip id="veh118" depart="117.79" from="-19821704#3" to="-392493390#0" departLane="best" type="veh_passenger"/>
    <trip id="veh119" depart="118.78" from="-695727399#1" to="90447822" departLane="best" type="veh_passenger"/>
    <trip id="veh120" depart="119.78" from="697862991" to="730948912#0" departLane="best" type="veh_passenger"/>
    <trip id="veh121" depart="120.78" from="695653152#0" to="642034966" departLane="best" type="veh_passenger"/>
    <trip id="veh122" depart="121.78" from="258507389#0" to="947619258#4" departLane="best" type="veh_passenger" departSpeed="max"/>
    <trip id="veh123" depart="122.78" from="331471618#0" to="-117177767#1" departLane="best" type="veh_passenger" departSpeed="max"/>
    <trip id="veh124" depart="123.77" from="693430261" to="-743764375#1" departLane="best" type="veh_passenger"/>
    <trip id="veh125" depart="124.77" from="36812785#10" to="90447843#2" departLane="best" type="veh_passenger"/>
    <trip id="veh126" depart="125.77" from="-24044609#0" to="-22943292#4" departLane="best" type="veh_passenger"/>
    <trip id="veh127" depart="126.77" from="-22882584#7" to="22943251#2" departLane="best" type="veh_passenger"/>
    <trip id="veh128" depart="127.77" from="-696452634" to="263951134" departLane="best" type="veh_passenger"/>
    <trip id="veh129" depart="128.77" from="55680846#1" to="-38429631" departLane="best" type="veh_passenger"/>
    <trip id="veh130" depart="129.76" from="27575769" to="-691529216#9" departLane="best" type="veh_passenger" departSpeed="max"/>
    <trip id="veh131" depart="130.76" from="19821195" to="848395848" departLane="best" type="veh_passenger" departSpeed="max"/>
    <trip id="veh132" depart="131.76" from="695727399#0" to="-21992504#7" departLane="best" type="veh_passenger"/>
    <trip id="veh133" depart="132.76" from="130820269#6" to="-696495717" departLane="best" type="veh_passenger"/>
    <trip id="veh134" depart="133.76" from="-1126916437" to="690320613#0" departLane="best" type="veh_passenger" departSpeed="max"/>
    <trip id="veh135" depart="134.76" from="278036591" to="-691529216#0" departLane="best" type="veh_passenger" departSpeed="max"/>
    <trip id="veh136" depart="135.75" from="688941684#4" to="22943144#0" departLane="best" type="veh_passenger"/>
    <trip id="veh137" depart="136.75" from="130837933#6" to="-1211778520" departLane="best" type="veh_passenger"/>
    <trip id="veh138" depart="137.75" from="-19822393#0" to="740679365#2" departLane="best" type="veh_passenger"/>
    <trip id="veh139" depart="138.75" from="695657272#0" to="24238059#1" departLane="best" type="veh_passenger"/>
    <trip id="veh140" depart="139.75" from="-259831073" to="-233745262" departLane="best" type="veh_passenger" departSpeed="max"/>
    <trip id="veh141" depart="140.74" from="-85003034#5" to="791188433" departLane="best" type="veh_passenger"/>
    <trip id="veh142" depart="141.74" from="690320632" to="697026697" departLane="best" type="veh_passenger"/>
    <trip id="veh143" depart="142.74" from="740679365#2" to="-38434953#2" departLane="best" type="veh_passenger"/>
    <trip id="veh144" depart="143.74" from="-689156360" to="-22882566#0" departLane="best" type="veh_passenger" departSpeed="max"/>
    <trip id="veh145" depart="144.74" from="689685700#0" to="740679365#3" departLane="best" type="veh_passenger"/>
    <trip id="veh146" depart="145.74" from="1204841862" to="322606171#1" departLane="best" type="veh_passenger"/>
    <trip id="veh147" depart="146.73" from="-263951134" to="90447815#1" departLane="best" type="veh_passenger" departSpeed="max"/>
    <trip id="veh148" depart="147.73" from="696723066#0" to="927529341" departLane="best" type="veh_passenger"/>
    <trip id="veh149" depart="148.73" from="-1278964459" to="688968374#7" departLane="best" type="veh_passenger"/>
    <trip id="veh150" depart="149.73" from="-90447822" to="90447816#1" departLane="best" type="veh_passenger" departSpeed="max"/>
    <trip id="veh151" depart="150.73" from="690817634#0" to="697206812#1" departLane="best" type="veh_passenger"/>
    <trip id="veh152" depart="151.72" from="690293461" to="-22943050#3" departLane="best" type="veh_passenger"/>
    <trip id="veh153" depart="152.72" from="696984063#0" to="696784101" departLane="best" type="veh_passenger" departSpeed="max"/>
    <trip id="veh154" depart="153.72" from="-642034962" to="695653152#0" departLane="best" type="veh_passenger" departSpeed="max"/>
    <trip id="veh155" depart="154.72" from="148852734#1" to="-789197903#6" departLane="best" type="veh_passenger"/>
    <trip id="veh156" depart="155.72" from="690320628#0" to="-47484419#1" departLane="best" type="veh_passenger"/>
    <trip id="veh157" depart="156.72" from="-1267033587#0" to="-331352576" departLane="best" type="veh_passenger"/>
    <trip id="veh158" depart="157.71" from="-90429198#2" to="697214214#2" departLane="best" type="veh_passenger"/>
    <trip id="veh159" depart="158.71" from="927526272" to="-696754750" departLane="best" type="veh_passenger" departSpeed="max"/>
    <trip id="veh160" depart="159.71" from="302532518#6" to="1174964063" departLane="best" type="veh_passenger"/>
    <trip id="veh161" depart="160.71" from="90447843#3" to="-22943292#4" departLane="best" type="veh_passenger"/>
    <trip id="veh162" depart="161.71" from="927548614" to="-287103785" departLane="best" type="veh_passenger" departSpeed="max"/>
    <trip id="veh163" depart="162.70" from="-22943115#2" to="130830296#4" departLane="best" type="veh_passenger"/>
    <trip id="veh164" depart="163.70" from="635485290#0" to="-88147614" departLane="best" type="veh_passenger"/>
    <trip id="veh165" depart="164.70" from="246781059#0" to="199989363#0" departLane="best" type="veh_passenger"/>
    <trip id="veh166" depart="165.70" from="-927675040" to="23976711#0" departLane="best" type="veh_passenger" departSpeed="max"/>
    <trip id="veh167" depart="166.70" from="-691529216#2" to="642395978" departLane="best" type="veh_passenger"/>
    <trip id="veh168" depart="167.70" from="-1093485832" to="90424408#0" departLane="best" type="veh_passenger" departSpeed="max"/>
    <trip id="veh169" depart="168.69" from="22376433#0" to="688941679#1" departLane="best" type="veh_passenger"/>
    <trip id="veh170" depart="169.69" from="688946350#2" to="46263877" departLane="best" type="veh_passenger"/>
    <trip id="veh171" depart="170.69" from="-90564609#0" to="-19821740#7" departLane="best" type="veh_passenger"/>
    <trip id="veh172" depart="171.69" from="36812785#12" to="-90447839#0" departLane="best" type="veh_passenger"/>
    <trip id="veh173" depart="172.69" from="-88308842" to="696526912" departLane="best" type="veh_passenger" departSpeed="max"/>
    <trip id="veh174" depart="173.68" from="-85284770" to="1216995275#0" departLane="best" type="veh_passenger" departSpeed="max"/>
    <trip id="veh175" depart="174.68" from="1155418505" to="-702490240#1" departLane="best" type="veh_passenger" departSpeed="max"/>
    <trip id="veh176" depart="175.68" from="-238829909#1" to="1285133501" departLane="best" type="veh_passenger" departSpeed="max"/>
    <trip id="veh177" depart="176.68" from="90447845#3" to="47800701#0" departLane="best" type="veh_passenger"/>
    <trip id="veh178" depart="177.68" from="75608980#0" to="302852024#2" departLane="best" type="veh_passenger" departSpeed="max"/>
    <trip id="veh179" depart="178.68" from="-789197903#2" to="22882580#7" departLane="best" type="veh_passenger"/>
    <trip id="veh180" depart="179.67" from="-1028906331#3" to="-69844492" departLane="best" type="veh_passenger"/>
    <trip id="veh181" depart="180.67" from="130844979" to="24028414#0" departLane="best" type="veh_passenger" departSpeed="max"/>
    <trip id="veh182" depart="181.67" from="331471618#1" to="148642426#0" departLane="best" type="veh_passenger"/>
    <trip id="veh183" depart="182.67" from="1359746859" to="-392493390#2" departLane="best" type="veh_passenger"/>
    <trip id="veh184" depart="183.67" from="192219556" to="791646876#0" departLane="best" type="veh_passenger"/>
    <trip id="veh185" depart="184.66" from="690320632" to="-269499249#0" departLane="best" type="veh_passenger"/>
    <trip id="veh186" depart="185.66" from="-199989363#4" to="200442617#3" departLane="best" type="veh_passenger"/>
    <trip id="veh187" depart="186.66" from="27575686" to="-90447848#0" departLane="best" type="veh_passenger"/>
    <trip id="veh188" depart="187.66" from="38429632#0" to="-460247949#1" departLane="best" type="veh_passenger" departSpeed="max"/>
    <trip id="veh189" depart="188.66" from="-417761549" to="-130830296#3" departLane="best" type="veh_passenger" departSpeed="max"/>
    <trip id="veh190" depart="189.66" from="-689012450#1" to="192931818#0" departLane="best" type="veh_passenger"/>
    <trip id="veh191" depart="190.65" from="696227250" to="-19822616#2" departLane="best" type="veh_passenger" departSpeed="max"/>
    <trip id="veh192" depart="191.65" from="1259664882" to="342881869#0" departLane="best" type="veh_passenger"/>
    <trip id="veh193" depart="192.65" from="-392493390#0" to="635485290#2" departLane="best" type="veh_passenger"/>
    <trip id="veh194" depart="193.65" from="19822582#2" to="-642034964#0" departLane="best" type="veh_passenger"/>
    <trip id="veh195" depart="194.65" from="334115132#1" to="-1153652155#1" departLane="best" type="veh_passenger"/>
    <trip id="veh196" depart="195.64" from="688956456" to="690320604#0" departLane="best" type="veh_passenger"/>
    <trip id="veh197" depart="196.64" from="-22882580#9" to="1290199593" departLane="best" type="veh_passenger"/>
    <trip id="veh198" depart="197.64" from="-331471621" to="90447889#5" departLane="best" type="veh_passenger" departSpeed="max"/>
    <trip id="veh199" depart="198.64" from="200132441#1" to="-170345933" departLane="best" type="veh_passenger"/>
    <trip id="veh200" depart="199.64" from="-689156360" to="696529202#0" departLane="best" type="veh_passenger" departSpeed="max"/>
    <trip id="veh201" depart="200.64" from="14618089#4" to="693636241" departLane="best" type="veh_passenger"/>
    <trip id="veh202" depart="201.63" from="381425895#0" to="947619258#4" departLane="best" type="veh_passenger"/>
    <trip id="veh203" depart="202.63" from="24044609#0" to="90447863#2" departLane="best" type="veh_passenger"/>
    <trip id="veh204" depart="203.63" from="700448563#2" to="300644153#0" departLane="best" type="veh_passenger"/>
    <trip id="veh205" depart="204.63" from="55692096#8" to="19977738#0" departLane="best" type="veh_passenger"/>
    <trip id="veh206" depart="205.63" from="695515422#2" to="22882580#7" departLane="best" type="veh_passenger"/>
    <trip id="veh207" depart="206.62" from="733131380" to="689012456#2" departLane="best" type="veh_passenger"/>
    <trip id="veh208" depart="207.62" from="193116149" to="-690272655#2" departLane="best" type="veh_passenger"/>
    <trip id="veh209" depart="208.62" from="-689012456#4" to="36812785#14" departLane="best" type="veh_passenger"/>
    <trip id="veh210" depart="209.62" from="689155541#0" to="20408951#0" departLane="best" type="veh_passenger" departSpeed="max"/>
    <trip id="veh211" depart="210.62" from="26827522#0" to="-696452633" departLane="best" type="veh_passenger" departSpeed="max"/>
    <trip id="veh212" depart="211.62" from="-19822616#5" to="-698306854#1" departLane="best" type="veh_passenger"/>
    <trip id="veh213" depart="212.61" from="-696409333" to="-88601270#0" departLane="best" type="veh_passenger" departSpeed="max"/>
    <trip id="veh214" depart="213.61" from="22751265#0" to="-24028351#1" departLane="best" type="veh_passenger"/>
    <trip id="veh215" depart="214.61" from="-642395978" to="635483486#0" departLane="best" type="veh_passenger" departSpeed="max"/>
    <trip id="veh216" depart="215.61" from="47484434#5" to="-19820683#1" departLane="best" type="veh_passenger"/>
    <trip id="veh217" depart="216.61" from="1211778520" to="22882543#0" departLane="best" type="veh_passenger"/>
    <trip id="veh218" depart="217.60" from="1259664884#3" to="-38429674#2" departLane="best" type="veh_passenger"/>
    <trip id="veh219" depart="218.60" from="1282706286#0" to="79895496#3" departLane="best" type="veh_passenger"/>
    <trip id="veh220" depart="219.60" from="238831475" to="635485290#1" departLane="best" type="veh_passenger" departSpeed="max"/>
    <trip id="veh221" depart="220.60" from="696267219" to="690054413#1" departLane="best" type="veh_passenger" departSpeed="max"/>
    <trip id="veh222" depart="221.60" from="-927608793" to="-1153652155#1" departLane="best" type="veh_passenger" departSpeed="max"/>
    <trip id="veh223" depart="222.60" from="-90447864" to="689207000" departLane="best" type="veh_passenger" departSpeed="max"/>
    <trip id="veh224" depart="223.59" from="696248322#0" to="90447869#1" departLane="best" type="veh_passenger"/>
    <trip id="veh225" depart="224.59" from="1278964457" to="689156360" departLane="best" type="veh_passenger"/>
    <trip id="veh226" depart="225.59" from="22802823#0" to="263347032#0" departLane="best" type="veh_passenger"/>
    <trip id="veh227" depart="226.59" from="-641451995" to="-421600465" departLane="best" type="veh_passenger" departSpeed="max"/>
    <trip id="veh228" depart="227.59" from="1311665576" to="-134369588#1" departLane="best" type="veh_passenger"/>
    <trip id="veh229" depart="228.58" from="-90447836#1" to="482770364#12" departLane="best" type="veh_passenger"/>
    <trip id="veh230" depart="229.58" from="1173215033" to="-266301702" departLane="best" type="veh_passenger"/>
    <trip id="veh231" depart="230.58" from="170345938#3" to="-233745262" departLane="best" type="veh_passenger"/>
    <trip id="veh232" depart="231.58" from="263345941#0" to="-130844979" departLane="best" type="veh_passenger"/>
    <trip id="veh233" depart="232.58" from="1006336804" to="23311564#7" departLane="best" type="veh_passenger"/>
    <trip id="veh234" depart="233.58" from="-1290133352" to="381426809#4" departLane="best" type="veh_passenger" departSpeed="max"/>
    <trip id="veh235" depart="234.57" from="-24238059#2" to="148393291" departLane="best" type="veh_passenger" departSpeed="max"/>
    <trip id="veh236" depart="235.57" from="-138507652#6" to="-961258411" departLane="best" type="veh_passenger"/>
    <trip id="veh237" depart="236.57" from="-55692116#4" to="-90429198#1" departLane="best" type="veh_passenger"/>