<?xml version="1.0" encoding="UTF-8"?>

<!-- generated on 2025-08-18 13:42:06.913111 by osmWebWizard.py UNKNOWN
<configuration>
    <net-file value="/home/kulla/Sumo/2025-08-18-13-41-56/osm.net.xml.gz"/>
    <output-trip-file value="/home/kulla/Sumo/2025-08-18-13-41-56/osm.passenger.trips.xml"/>
    <route-file value="/home/kulla/Sumo/2025-08-18-13-41-56/osm.passenger.rou.xml"/>
    <prefix value="veh"/>
    <trip-attributes value="departLane=&quot;best&quot;"/>
    <fringe-start-attributes value="departSpeed=&quot;max&quot;"/>
    <vehicle-class value="passenger"/>
    <lanes value="True"/>
    <fringe-factor value="5"/>
    <allow-fringe.min-length value="1000.0"/>
    <edge-permission value="passenger"/>
    <via-edge-types value="highway.motorway,highway.motorway_link,highway.trunk_link,highway.primary_link,highway.secondary_link,highway.tertiary_link"/>
    <min-distance value="300.0"/>
    <min-distance.fringe value="10.0"/>
    <remove-loops value="True"/>
    <insertion-density value="12.0"/>
</configuration>
-->

<routes xmlns:xsi="http://www.w3.org/2001/XMLSchema-instance" xsi:noNamespaceSchemaLocation="http://sumo.dlr.de/xsd/routes_file.xsd">
    <vType id="veh_passenger" vClass="passenger"/>
    <trip id="veh0" depart="0.00" from="-175562630" to="-175561508#5" departLane="best" type="veh_passenger"/>
    <trip id="veh1" depart="2.16" from="183224558" to="-155875837" departLane="best" type="veh_passenger"/>
    <trip id="veh2" depart="4.32" from="-278539545#0" to="-155875667#6" departLane="best" type="veh_passenger"/>
    <trip id="veh3" depart="6.47" from="-175561488#7" to="155875700" departLane="best" type="veh_passenger"/>
    <trip id="veh4" depart="8.63" from="-155875655#0" to="-175560877#0" departLane="best" type="veh_passenger"/>
    <trip id="veh5" depart="10.79" from="155884400" to="155875817#1" departLane="best" type="veh_passenger" departSpeed="max"/>
    <trip id="veh6" depart="12.95" from="-175561508#11" to="155884440#0" departLane="best" type="veh_passenger"/>
    <trip id="veh7" depart="15.11" from="175562556" to="-155875623#13" departLane="best" type="veh_passenger"/>
    <trip id="veh8" depart="17.26" from="175562458" to="175562059#0" departLane="best" type="veh_passenger"/>
    <trip id="veh9" depart="19.42" from="-175585009" to="-170844796#0" departLane="best" type="veh_passenger"/>
    <trip id="veh10" depart="21.58" from="557169431" to="-175585026#0" departLane="best" type="veh_passenger"/>
    <trip id="veh11" depart="23.74" from="175563076#2" to="155884528#1" departLane="best" type="veh_passenger"/>
    <trip id="veh12" depart="25.90" from="175562495" to="175562678#0" departLane="best" type="veh_passenger" departSpeed="max"/>
    <trip id="veh13" depart="28.05" from="1348920376#1" to="669041722#2" departLane="best" type="veh_passenger"/>
    <trip id="veh14" depart="30.21" from="-278539437" to="155875852#1" departLane="best" type="veh_passenger" departSpeed="max"/>
    <trip id="veh15" depart="32.37" from="175584961#10" to="155884410#2" departLane="best" type="veh_passenger"/>
    <trip id="veh16" depart="34.53" from="173941385#2" to="-155875687#3" departLane="best" type="veh_passenger"/>
    <trip id="veh17" depart="36.69" from="-175561800" to="-175562880#1" departLane="best" type="veh_passenger"/>
    <trip id="veh18" depart="38.85" from="-155875782#3" to="-175561937" departLane="best" type="veh_passenger"/>
    <trip id="veh19" depart="41.00" from="-155875852#1" to="-175562758#11" departLane="best" type="veh_passenger" departSpeed="max"/>
    <trip id="veh20" depart="43.16" from="155875875#2" to="-239350182#12" departLane="best" type="veh_passenger"/>
    <trip id="veh21" depart="45.32" from="-224451333" to="-175561393#1" departLane="best" type="veh_passenger" departSpeed="max"/>
    <trip id="veh22" depart="47.48" from="-175562420" to="612501645#2" departLane="best" type="veh_passenger" departSpeed="max"/>
    <trip id="veh23" depart="49.64" from="-173941385#4" to="175562677#0" departLane="best" type="veh_passenger"/>
    <trip id="veh24" depart="51.79" from="-155884554#3" to="-278539487#0" departLane="best" type="veh_passenger"/>
    <trip id="veh25" depart="53.95" from="68521369#5" to="175560819#4" departLane="best" type="veh_passenger"/>
    <trip id="veh26" depart="56.11" from="155875653#2" to="175561858#0" departLane="best" type="veh_passenger"/>
    <trip id="veh27" depart="58.27" from="175563009" to="175563124#1" departLane="best" type="veh_passenger"/>
    <trip id="veh28" depart="60.43" from="-175561830#1" to="-155875668#4" departLane="best" type="veh_passenger"/>
    <trip id="veh29" depart="62.58" from="-175563082#1" to="-175562556" departLane="best" type="veh_passenger"/>
    <trip id="veh30" depart="64.74" from="-175561423" to="623710418#0" departLane="best" type="veh_passenger"/>
    <trip id="veh31" depart="66.90" from="175585016" to="-175563129" departLane="best" type="veh_passenger" departSpeed="max"/>
    <trip id="veh32" depart="69.06" from="155884410#2" to="-278539547#0" departLane="best" type="veh_passenger"/>
    <trip id="veh33" depart="71.22" from="278539445" to="155875623#17" departLane="best" type="veh_passenger"/>
    <trip id="veh34" depart="73.37" from="-175562395#1" to="-175562144#1" departLane="best" type="veh_passenger"/>
    <trip id="veh35" depart="75.53" from="155875659#1" to="-175562395#1" departLane="best" type="veh_passenger"/>
    <trip id="veh36" depart="77.69" from="155875710" to="408840879#1" departLane="best" type="veh_passenger"/>
    <trip id="veh37" depart="79.85" from="-278539487#1" to="-175561488#5" departLane="best" type="veh_passenger"/>
    <trip id="veh38" depart="82.01" from="992079381#0" to="155875710" departLane="best" type="veh_passenger"/>
    <trip id="veh39" depart="84.16" from="-155875870#3" to="173941619#2" departLane="best" type="veh_passenger" departSpeed="max"/>
    <trip id="veh40" depart="86.32" from="175562233#0" to="-623710417#4" departLane="best" type="veh_passenger"/>
    <trip id="veh41" depart="88.48" from="-155875733#1" to="-278539496" departLane="best" type="veh_passenger"/>
    <trip id="veh42" depart="90.64" from="888869258" to="155875779" departLane="best" type="veh_passenger" departSpeed="max"/>
    <trip id="veh43" depart="92.80" from="627053251#0" to="278539504" departLane="best" type="veh_passenger" departSpeed="max"/>
    <trip id="veh44" depart="94.96" from="-155875623#3" to="175562446" departLane="best" type="veh_passenger"/>
    <trip id="veh45" depart="97.11" from="155884497#2" to="155875797#1" departLane="best" type="veh_passenger"/>
    <trip id="veh46" depart="99.27" from="-175562420" to="175560823#1" departLane="best" type="veh_passenger" departSpeed="max"/>
    <trip id="veh47" depart="101.43" from="-155875875#2" to="-669041722#6" departLane="best" type="veh_passenger"/>
    <trip id="veh48" depart="103.59" from="-556963341" to="627053255" departLane="best" type="veh_passenger" departSpeed="max"/>
    <trip id="veh49" depart="105.75" from="175585016" to="-175562414" departLane="best" type="veh_passenger" departSpeed="max"/>
    <trip id="veh50" depart="107.90" from="-627053260" to="-173941991#2" departLane="best" type="veh_passenger" departSpeed="max"/>
    <trip id="veh51" depart="110.06" from="278539430#0" to="278539533#0" departLane="best" type="veh_passenger" departSpeed="max"/>
    <trip id="veh52" depart="112.22" from="-175562918#0" to="175560819#1" departLane="best" type="veh_passenger"/>
    <trip id="veh53" depart="114.38" from="155875782#0" to="-155884554#0" departLane="best" type="veh_passenger"/>
    <trip id="veh54" depart="116.54" from="175561508#7" to="155875797#5" departLane="best" type="veh_passenger"/>
    <trip id="veh55" depart="118.69" from="175561981#1" to="155875782#4" departLane="best" type="veh_passenger"/>
    <trip id="veh56" depart="120.85" from="-1348920376#1" to="-175584973#3" departLane="best" type="veh_passenger"/>
    <trip id="veh57" depart="123.01" from="-155875639#2" to="557168431" departLane="best" type="veh_passenger" departSpeed="max"/>
    <trip id="veh58" depart="125.17" from="175585026#0" to="278539437" departLane="best" type="veh_passenger"/>
    <trip id="veh59" depart="127.33" from="-175563001#0" to="-155875735#2" departLane="best" type="veh_passenger"/>
    <trip id="veh60" depart="129.48" from="175585020" to="627053238#0" departLane="best" type="veh_passenger" departSpeed="max"/>
    <trip id="veh61" depart="131.64" from="-155875790#7" to="155875667#6" departLane="best" type="veh_passenger"/>
    <trip id="veh62" depart="133.80" from="-155875738#10" to="175562995#1" departLane="best" type="veh_passenger"/>
    <trip id="veh63" depart="135.96" from="175561623" to="-155884430" departLane="best" type="veh_passenger"/>
    <trip id="veh64" depart="138.12" from="-557168431" to="155875850#2" departLane="best" type="veh_passenger" departSpeed="max"/>
    <trip id="veh65" depart="140.27" from="-278539546#0" to="-175561402#0" departLane="best" type="veh_passenger"/>
    <trip id="veh66" depart="142.43" from="155875617#1" to="175562678#1" departLane="best" type="veh_passenger"/>
    <trip id="veh67" depart="144.59" from="-175561007#1" to="-175563102#4" departLane="best" type="veh_passenger"/>
    <trip id="veh68" depart="146.75" from="746275618#2" to="175560891#0" departLane="best" type="veh_passenger"/>
    <trip id="veh69" depart="148.91" from="-155884384#1" to="-175561527" departLane="best" type="veh_passenger"/>
    <trip id="veh70" depart="151.06" from="-175585004#1" to="155884437" departLane="best" type="veh_passenger"/>
    <trip id="veh71" depart="153.22" from="-175561841" to="-175561488#8" departLane="best" type="veh_passenger" departSpeed="max"/>
    <trip id="veh72" depart="155.38" from="-155875738#5" to="173941985#3" departLane="best" type="veh_passenger"/>
    <trip id="veh73" depart="157.54" from="-175561830#0" to="556963341" departLane="best" type="veh_passenger"/>
    <trip id="veh74" depart="159.70" from="175584949" to="-155875769#0" departLane="best" type="veh_passenger"/>
    <trip id="veh75" depart="161.86" from="-175561973#11" to="175561488#2" departLane="best" type="veh_passenger"/>
    <trip id="veh76" depart="164.01" from="-175561488#12" to="-155884444" departLane="best" type="veh_passenger"/>
    <trip id="veh77" depart="166.17" from="278539545#1" to="155884381#7" departLane="best" type="veh_passenger"/>
    <trip id="veh78" depart="168.33" from="-557166355#0" to="175584966" departLane="best" type="veh_passenger"/>
    <trip id="veh79" depart="170.49" from="175562495" to="-175560819#5" departLane="best" type="veh_passenger" departSpeed="max"/>
    <trip id="veh80" depart="172.65" from="-155875840" to="-632078153" departLane="best" type="veh_passenger"/>
    <trip id="veh81" depart="174.80" from="-278539546#2" to="155875632#3" departLane="best" type="veh_passenger"/>
    <trip id="veh82" depart="176.96" from="175560823#10" to="175561508#3" departLane="best" type="veh_passenger"/>
    <trip id="veh83" depart="179.12" from="67792312#1" to="-155875875#1" departLane="best" type="veh_passenger"/>
    <trip id="veh84" depart="181.28" from="-278539488#1" to="-175585037#2" departLane="best" type="veh_passenger" departSpeed="max"/>
    <trip id="veh85" depart="183.44" from="175584961#10" to="-175562188#0" departLane="best" type="veh_passenger"/>
    <trip id="veh86" depart="185.59" from="-175560823#11" to="-888869258" departLane="best" type="veh_passenger"/>
    <trip id="veh87" depart="187.75" from="-278539545#0" to="-175562758#13" departLane="best" type="veh_passenger"/>
    <trip id="veh88" depart="189.91" from="-408840877" to="278539509" departLane="best" type="veh_passenger" departSpeed="max"/>
    <trip id="veh89" depart="192.07" from="155875639#1" to="-155875721" departLane="best" type="veh_passenger"/>
    <trip id="veh90" depart="194.23" from="992079384" to="278539450" departLane="best" type="veh_passenger"/>
    <trip id="veh91" depart="196.38" from="627053250" to="557168424#1" departLane="best" type="veh_passenger" departSpeed="max"/>
    <trip id="veh92" depart="198.54" from="175563082#0" to="-173941385#5" departLane="best" type="veh_passenger"/>
    <trip id="veh93" depart="200.70" from="-623710415" to="-175561458" departLane="best" type="veh_passenger" departSpeed="max"/>
    <trip id="veh94" depart="202.86" from="-278539487#2" to="-155875735#5" departLane="best" type="veh_passenger" departSpeed="max"/>
    <trip id="veh95" depart="205.02" from="-278539440" to="67792312#5" departLane="best" type="veh_passenger" departSpeed="max"/>
    <trip id="veh96" depart="207.17" from="-175562396#0" to="175584961#9" departLane="best" type="veh_passenger"/>
    <trip id="veh97" depart="209.33" from="-557012007" to="-623710418#1" departLane="best" type="veh_passenger" departSpeed="max"/>
    <trip id="veh98" depart="211.49" from="557169431" to="729271576#0" departLane="best" type="veh_passenger"/>
    <trip id="veh99" depart="213.65" from="155875650#4" to="175562407" departLane="best" type="veh_passenger"/>
    <trip id="veh100" depart="215.81" from="-155884529#1" to="-175562949#3" departLane="best" type="veh_passenger" departSpeed="max"/>
    <trip id="veh101" depart="217.96" from="627053250" to="155884413#0" departLane="best" type="veh_passenger" departSpeed="max"/>
    <trip id="veh102" depart="220.12" from="155875623#13" to="175562880#1" departLane="best" type="veh_passenger"/>
    <trip id="veh103" depart="222.28" from="-155875704" to="155884419#7" departLane="best" type="veh_passenger"/>
    <trip id="veh104" depart="224.44" from="-627053263" to="278539487#2" departLane="best" type="veh_passenger" departSpeed="max"/>
    <trip id="veh105" depart="226.60" from="-155884539#3" to="627053265" departLane="best" type="veh_passenger"/>
    <trip id="veh106" depart="228.76" from="-155875782#4" to="-174032667" departLane="best" type="veh_passenger"/>
    <trip id="veh107" depart="230.91" from="155875735#6" to="175561508#9" departLane="best" type="veh_passenger"/>
    <trip id="veh108" depart="233.07" from="-175561939" to="-155884412#3" departLane="best" type="veh_passenger"/>
    <trip id="veh109" depart="235.23" from="183224548" to="-175562138" departLane="best" type="veh_passenger" departSpeed="max"/>
    <trip id="veh110" depart="237.39" from="155875735#5" to="173941212#0" departLane="best" type="veh_passenger"/>
    <trip id="veh111" depart="239.55" from="-278539534#1" to="155884419#5" departLane="best" type="veh_passenger"/>
    <trip id="veh112" depart="241.70" from="-67152547#1" to="612501639#2" departLane="best" type="veh_passenger"/>
    <trip id="veh113" depart="243.86" from="-175561297#1" to="175562352#1" departLane="best" type="veh_passenger"/>
    <trip id="veh114" depart="246.02" from="-175561973#2" to="-278539547#0" departLane="best" type="veh_passenger"/>
    <trip id="veh115" depart="248.18" from="155884450" to="-175563001#2" departLane="best" type="veh_passenger" departSpeed="max"/>
    <trip id="veh116" depart="250.34" from="-175563094#1" to="175562918#0" departLane="best" type="veh_passenger"/>
    <trip id="veh117" depart="252.49" from="-155875742#0" to="155875623#15" departLane="best" type="veh_passenger"/>
    <trip id="veh118" depart="254.65" from="992079382#1" to="746275618#0" departLane="best" type="veh_passenger"/>
    <trip id="veh119" depart="256.81" from="-155875743#0" to="-175561442#0" departLane="best" type="veh_passenger"/>
    <trip id="veh120" depart="258.97" from="175585037#1" to="278539548" departLane="best" type="veh_passenger"/>
    <trip id="veh121" depart="261.13" from="-224451333" to="-170844796#2" departLane="best" type="veh_passenger" departSpeed="max"/>
    <trip id="veh122" depart="263.28" from="155875790#1" to="67792312#5" departLane="best" type="veh_passenger"/>
    <trip id="veh123" depart="265.44" from="155884408" to="-155875623#18" departLane="best" type="veh_passenger" departSpeed="max"/>
    <trip id="veh124" depart="267.60" from="175562720#1" to="-175563001#0" departLane="best" type="veh_passenger"/>
    <trip id="veh125" depart="269.76" from="155884427#2" to="612501647#4" departLane="best" type="veh_passenger"/>
    <trip id="veh126" depart="271.92" from="-155884427#1" to="-155884404" departLane="best" type="veh_passenger"/>
    <trip id="veh127" depart="274.07" from="-155875868#1" to="155875856#0" departLane="best" type="veh_passenger"/>
    <trip id="veh128" depart="276.23" from="-175562590" to="155884529#1" departLane="best" type="veh_passenger"/>
    <trip id="veh129" depart="278.39" from="173942126#1" to="-175561007#0" departLane="best" type="veh_passenger"/>
    <trip id="veh130" depart="280.55" from="155875873" to="-175562446" departLane="best" type="veh_passenger"/>
    <trip id="veh131" depart="282.71" from="-623710419" to="556963341" departLane="best" type="veh_passenger" departSpeed="max"/>
    <trip id="veh132" depart="284.87" from="175563071#2" to="-155875857#0" departLane="best" type="veh_passenger"/>
    <trip id="veh133" depart="287.02" from="-278539546#2" to="-175562745#0" departLane="best" type="veh_passenger"/>
    <trip id="veh134" depart="289.18" from="-155875617#1" to="175563102#11" departLane="best" type="veh_passenger"/>
    <trip id="veh135" depart="291.34" from="155875876#3" to="-175562377" departLane="best" type="veh_passenger"/>
    <trip id="veh136" depart="293.50" from="175561007#0" to="155875852#1" departLane="best" type="veh_passenger"/>
    <trip id="veh137" depart="295.66" from="-278539550#2" to="-155875623#23" departLane="best" type="veh_passenger" departSpeed="max"/>
    <trip id="veh138" depart="297.81" from="-155875747#1" to="278557250" departLane="best" type="veh_passenger"/>
    <trip id="veh139" depart="299.97" from="222206163#0" to="155875817#1" departLane="best" type="veh_passenger" departSpeed="max"/>
    <trip id="veh140" depart="302.13" from="175562911" to="155884419#2" departLane="best" type="veh_passenger"/>
    <trip id="veh141" depart="304.29" from="-155884503" to="-155884427#6" departLane="best" type="veh_passenger" departSpeed="max"/>
    <trip id="veh142" depart="306.45" from="-175563001#2" to="408840879#2" departLane="best" type="veh_passenger"/>
    <trip id="veh143" depart="308.60" from="175562292#1" to="278539504" departLane="best" type="veh_passenger"/>
    <trip id="veh144" depart="310.76" from="183224600#2" to="-175561396" departLane="best" type="veh_passenger"/>
    <trip id="veh145" depart="312.92" from="-175562170" to="-155875883#4" departLane="best" type="veh_passenger"/>
    <trip id="veh146" depart="315.08" from="175561981#6" to="278557251" departLane="best" type="veh_passenger"/>
    <trip id="veh147" depart="317.24" from="-278539497" to="173941276#0" departLane="best" type="veh_passenger"/>
    <trip id="veh148" depart="319.39" from="-155884529#1" to="557168431" departLane="best" type="veh_passenger" departSpeed="max"/>
    <trip id="veh149" depart="321.55" from="175584966" to="669041722#9" departLane="best" type="veh_passenger"/>
    <trip id="veh150" depart="323.71" from="175562604#0" to="278539550#2" departLane="best" type="veh_passenger"/>
    <trip id="veh151" depart="325.87" from="-155875650#4" to="175562745#1" departLane="best" type="veh_passenger"/>
    <trip id="veh152" depart="328.03" from="175562604#0" to="-175562505" departLane="best" type="veh_passenger"/>
    <trip id="veh153" depart="330.18" from="175562142" to="-155884384#6" departLane="best" type="veh_passenger"/>
    <trip id="veh154" depart="332.34" from="175585006#0" to="278539492" departLane="best" type="veh_passenger"/>
    <trip id="veh155" depart="334.50" from="-175561508#7" to="183224600#0" departLane="best" type="veh_passenger"/>
    <trip id="veh156" depart="336.66" from="-557161309" to="-175563076#1" departLane="best" type="veh_passenger" departSpeed="max"/>
    <trip id="veh157" depart="338.82" from="175562286" to="-175561702" departLane="best" type="veh_passenger"/>
    <trip id="veh158" depart="340.97" from="-155875650#1" to="-175560823#4" departLane="best" type="veh_passenger"/>
    <trip id="veh159" depart="343.13" from="-175584961#10" to="278539522" departLane="best" type="veh_passenger"/>
    <trip id="veh160" depart="345.29" from="623710421" to="-175562758#3" departLane="best" type="veh_passenger"/>
    <trip id="veh161" depart="347.45" from="155884381#1" to="-408840879#0" departLane="best" type="veh_passenger"/>
    <trip id="veh162" depart="349.61" from="67792311#0" to="155875790#9" departLane="best" type="veh_passenger"/>
    <trip id="veh163" depart="351.77" from="278539550#0" to="-155884404" departLane="best" type="veh_passenger"/>
    <trip id="veh164" depart="353.92" from="627053251#0" to="-173941991#2" departLane="best" type="veh_passenger" departSpeed="max"/>
    <trip id="veh165" depart="356.08" from="612501645#5" to="-175562495" departLane="best" type="veh_passenger"/>
    <trip id="veh166" depart="358.24" from="-155875870#1" to="-669041722#6" departLane="best" type="veh_passenger"/>
    <trip id="veh167" depart="360.40" from="175560823#1" to="-175563124#0" departLane="best" type="veh_passenger"/>
    <trip id="veh168" depart="362.56" from="155875758" to="155875726" departLane="best" type="veh_passenger" departSpeed="max"/>
    <trip id="veh169" depart="364.71" from="-278539459" to="155884410#0" departLane="best" type="veh_passenger" departSpeed="max"/>
    <trip id="veh170" depart="366.87" from="-175562247" to="175562281" departLane="best" type="veh_passenger"/>
    <trip id="veh171" depart="369.03" from="-155875615#0" to="557166355#2" departLane="best" type="veh_passenger"/>
    <trip id="veh172" depart="371.19" from="155875615#3" to="175562420" departLane="best" type="veh_passenger"/>
    <trip id="veh173" depart="373.35" from="175561028" to="175561488#6" departLane="best" type="veh_passenger"/>
    <trip id="veh174" depart="375.50" from="-183224606#1" to="-155875758" departLane="best" type="veh_passenger"/>
    <trip id="veh175" depart="377.66" from="155884427#6" to="-175585006#0" departLane="best" type="veh_passenger"/>
    <trip id="veh176" depart="379.82" from="-175563076#2" to="278539480" departLane="best" type="veh_passenger"/>
    <trip id="veh177" depart="381.98" from="173942192" to="-175563001#3" departLane="best" type="veh_passenger" departSpeed="max"/>
    <trip id="veh178" depart="384.14" from="-175563009" to="-557166346#3" departLane="best" type="veh_passenger"/>
    <trip id="veh179" depart="386.29" from="-278539488#1" to="-175562949#0" departLane="best" type="veh_passenger" departSpeed="max"/>
    <trip id="veh180" depart="388.45" from="278539551#2" to="175561593#1" departLane="best" type="veh_passenger"/>
    <trip id="veh181" depart="390.61" from="220005384#0" to="170844796#1" departLane="best" type="veh_passenger"/>
    <trip id="veh182" depart="392.77" from="-175562937" to="155875845#0" departLane="best" type="veh_passenger" departSpeed="max"/>
    <trip id="veh183" depart="394.93" from="-1348920376#1" to="-175562835" departLane="best" type="veh_passenger"/>
    <trip id="veh184" depart="397.08" from="-278557250" to="155884413#4" departLane="best" type="veh_passenger" departSpeed="max"/>
    <trip id="veh185" depart="399.24" from="155884410#0" to="155875632#0" departLane="best" type="veh_passenger"/>
    <trip id="veh186" depart="401.40" from="-408840876" to="-175561458" departLane="best" type="veh_passenger" departSpeed="max"/>
    <trip id="veh187" depart="403.56" from="-557166355#2" to="408840881#2" departLane="best" type="veh_passenger"/>
    <trip id="veh188" depart="405.72" from="175562292#1" to="-173941417#3" departLane="best" type="veh_passenger"/>
    <trip id="veh189" depart="407.87" from="155875868#2" to="-175585020" departLane="best" type="veh_passenger"/>
    <trip id="veh190" depart="410.03" from="175562758#0" to="175562904#3" departLane="best" type="veh_passenger"/>
    <trip id="veh191" depart="412.19" from="155884453" to="-175561527" departLane="best" type="veh_passenger" departSpeed="max"/>
    <trip id="veh192" depart="414.35" from="-175560891#1" to="-155875658#4" departLane="best" type="veh_passenger"/>
    <trip id="veh193" depart="416.51" from="-175562051#1" to="155875650#1" departLane="best" type="veh_passenger"/>
    <trip id="veh194" depart="418.67" from="175563094#1" to="-155875782#0" departLane="best" type="veh_passenger"/>
    <trip id="veh195" depart="420.82" from="-278539529#3" to="173941878#0" departLane="best" type="veh_passenger" departSpeed="max"/>
    <trip id="veh196" depart="422.98" from="-627053253" to="-175562059#3" departLane="best" type="veh_passenger" departSpeed="max"/>
    <trip id="veh197" depart="425.14" from="155884412#1" to="-155875623#0" departLane="best" type="veh_passenger"/>
    <trip id="veh198" depart="427.30" from="175561423" to="175563094#2" departLane="best" type="veh_passenger"/>
    <trip id="veh199" depart="429.46" from="-155875858#3" to="-627053250" departLane="best" type="veh_passenger"/>
    <trip id="veh200" depart="431.61" from="-173941619#1" to="627053263" departLane="best" type="veh_passenger"/>
    <trip id="veh201" depart="433.77" from="-669041722#2" to="-155875720" departLane="best" type="veh_passenger"/>
    <trip id="veh202" depart="435.93" from="-175562158" to="278539480" departLane="best" type="veh_passenger"/>
    <trip id="veh203" depart="438.09" from="155884440#0" to="67792312#5" departLane="best" type="veh_passenger"/>
    <trip id="veh204" depart="440.25" from="155875735#9" to="627053253" departLane="best" type="veh_passenger"/>
    <trip id="veh205" depart="442.40" from="183224550#0" to="155884553#0" departLane="best" type="veh_passenger"/>
    <trip id="veh206" depart="444.56" from="173942192" to="155875695#3" departLane="best" type="veh_passenger" departSpeed="max"/>
    <trip id="veh207" depart="446.72" from="183224592#0" to="175562774#2" departLane="best" type="veh_passenger"/>
    <trip id="veh208" depart="448.88" from="-557168431" to="-175562322" departLane="best" type="veh_passenger" departSpeed="max"/>
    <trip id="veh209" depart="451.04" from="-175562116#0" to="175560805#0" departLane="best" type="veh_passenger"/>
    <trip id="veh210" depart="453.19" from="175561623" to="155875738#11" departLane="best" type="veh_passenger"/>
    <trip id="veh211" depart="455.35" from="155875852#0" to="-175562718#0" departLane="best" type="veh_passenger" departSpeed="max"/>
    <trip id="veh212" depart="457.51" from="-155875769#0" to="-175562801#1" departLane="best" type="veh_passenger"/>
    <trip id="veh213" depart="459.67" from="-175562565#0" to="-175584961#10" departLane="best" type="veh_passenger"/>
    <trip id="veh214" depart="461.83" from="155875619#1" to="-155884464" departLane="best" type="veh_passenger"/>
    <trip id="veh215" depart="463.98" from="-175561844#0" to="175561975" departLane="best" type="veh_passenger"/>
    <trip id="veh216" depart="466.14" from="173941393#1" to="-155875738#8" departLane="best" type="veh_passenger"/>
    <trip id="veh217" depart="468.30" from="-278539504" to="155875800#1" departLane="best" type="veh_passenger"/>
    <trip id="veh218" depart="470.46" from="-278539529#3" to="-175561263" departLane="best" type="veh_passenger" departSpeed="max"/>
    <trip id="veh219" depart="472.62" from="-278539537#2" to="496758033" departLane="best" type="veh_passenger"/>
    <trip id="veh220" depart="474.78" from="155875708" to="175561981#6" departLane="best" type="veh_passenger"/>
    <trip id="veh221" depart="476.93" from="175563129" to="175563071#1" departLane="best" type="veh_passenger"/>
    <trip id="veh222" depart="479.09" from="-278539442" to="-155875623#11" departLane="best" type="veh_passenger"/>
    <trip id="veh223" depart="481.25" from="-175588213" to="175562937" departLane="best" type="veh_passenger" departSpeed="max"/>
    <trip id="veh224" depart="483.41" from="175563102#3" to="627053255" departLane="best" type="veh_passenger"/>
    <trip id="veh225" depart="485.57" from="-278539534#0" to="175562880#0" departLane="best" type="veh_passenger"/>
    <trip id="veh226" depart="487.72" from="155875623#25" to="155884519#2" departLane="best" type="veh_passenger"/>
    <trip id="veh227" depart="489.88" from="-338167354" to="-155875667#3" departLane="best" type="veh_passenger" departSpeed="max"/>
    <trip id="veh228" depart="492.04" from="-175584993#0" to="175561702" departLane="best" type="veh_passenger"/>
    <trip id="veh229" depart="494.20" from="-278539492" to="-173941385#1" departLane="best" type="veh_passenger" departSpeed="max"/>
    <trip id="veh230" depart="496.36" from="-557162423" to="-155884427#7" departLane="best" type="veh_passenger" departSpeed="max"/>
    <trip id="veh231" depart="498.51" from="155875817#0" to="-155875663#0" departLane="best" type="veh_passenger"/>
    <trip id="veh232" depart="500.67" from="-278539479" to="155875877#0" departLane="best" type="veh_passenger" departSpeed="max"/>
    <trip id="veh233" depart="502.83" from="-155875655#1" to="175560823#3" departLane="best" type="veh_passenger"/>
    <trip id="veh234" depart="504.99" from="-155884427#7" to="155875623#25" departLane="best" type="veh_passenger"/>
    <trip id="veh235" depart="507.15" from="-155875685#7" to="-278539486" departLane="best" type="veh_passenger"/>
    <trip id="veh236" depart="509.30" from="-175561442#0" to="-175584986" departLane="best" type="veh_passenger"/>
    <trip id="veh237" depart="511.46" from="175561508#3" to="-278539486" departLane="best" type="veh_passenger"/>
    <trip id="veh238" depart="513.62" from="175561442#1" to="278539440" departLane="best" type="veh_passenger"/>
    <trip id="veh239" depart="515.78" from="-175562216#2" to="-155875797#7" departLane="best" type="veh_passenger"/>
    <trip id="veh240" depart="517.94" from="155884400" to="175584961#1" departLane="best" type="veh_passenger" departSpeed="max"/>
    <trip id="veh241" depart="520.09" from="155884404" to="175562937" departLane="best" type="veh_passenger" departSpeed="max"/>