<?xml version="1.0" encoding="UTF-8"?>

<!-- generated on 2025-08-20 16:32:31.224435 by randomTrips.py UNKNOWN
<configuration>
    <net-file value="osm.net.xml.gz"/>
    <output-trip-file value="trips_low.rou.xml"/>
    <trip-attributes value="departLane=&quot;best&quot; departSpeed=&quot;max&quot; departPos=&quot;random&quot;"/>
    <validate value="True"/>
    <period value="3.0"/>
</configuration>
-->

<!-- generated on 2025-08-20 16:32:30 by Eclipse SUMO duarouter Version 1.24.0
<duarouterConfiguration xmlns:xsi="http://www.w3.org/2001/XMLSchema-instance" xsi:noNamespaceSchemaLocation="http://sumo.dlr.de/xsd/duarouterConfiguration.xsd">

    <input>
        <net-file value="osm.net.xml.gz"/>
        <route-files value="trips_low.rou.xml"/>
    </input>

    <output>
        <output-file value="routes.rou.xml"/>
        <alternatives-output value="NUL"/>
    </output>

    <time>
        <begin value="0.0"/>
        <end value="3600"/>
    </time>

    <report>
        <no-warnings value="true"/>
        <ignore-errors value="true"/>
        <no-step-log value="true"/>
    </report>

</duarouterConfiguration>
-->

<routes xmlns:xsi="http://www.w3.org/2001/XMLSchema-instance" xsi:noNamespaceSchemaLocation="http://sumo.dlr.de/xsd/routes_file.xsd">
    <vehicle id="0" depart="0.00" departLane="best" departPos="random" departSpeed="max">
        <route edges="24028653#0 258519972#0 -689012448#3 -689018014 -199989363#9 -199989363#4 -689012450#1 -689012455#5 -689012455#0 -689012456#7 -689012456#4 -689012456#1 -689012456#0 -695520769#2 -1028906331#9 -1028906331#3 22802823#0 623146110#0-AddedOnRampEdge 623146110#0 696240644 22802783#0 130837945#0 130837945#2 -130822232#6 -130822232#4 101344002#0 -130822234#3 -130822234#2"/>
    </vehicle>
    <vehicle id="1" depart="3.00" departLane="best" departPos="random" departSpeed="max">
        <route edges="-690496989 690496989 -79888971#3 -79888971#2 -691529216#3 -691529216#2 -691529216#0 -691529215 -1278964458 -1278964459 -697831506#1 -1278964460#1 -342886913#2"/>
    </vehicle>
    <vehicle id="2" depart="6.00" departLane="best" departPos="random" departSpeed="max">
        <route edges="474164339#0 138507645#0 -258519974#2 -258519974#1 258519969#0 -689018014 -199989363#9 -199989363#4 -689012450#1 -689012455#5 -689012455#0 -689012456#7 -689012456#4 -689012456#1 -689012456#0 -695520769#2 -1028906331#9 -1028906331#3 22802823#0 623146110#0-AddedOnRampEdge 623146110#0 696240644 22802783#0 130837945#0 130837945#2 -130822232#6 -130822232#4 -130822232#1 130822234#6 130822234#10 695502507 695503350 1267033587#1 1267033587#3 19821704#0 19821704#2 1267029558#0 1267029558#2 1267029558#4 -1312173238 1259664877#0 1259664877#1 1259664877#2 1259664877#8 1259664877#10 1259664877#14 1259664877#15 19977173#0 23025848#0 693636241 693636240 385508913#0 695671317 695671316#0 695671315#0 24871754#0 693637901 693430262#0 694822043 107936721#0 302532518#0 302532518#3 302532518#4 302532518#6 302532518#7 302532518#11"/>
    </vehicle>
    <vehicle id="3" depart="9.00" departLane="best" departPos="random" departSpeed="max">
        <route edges="699576529 696495717 20261961#3 696489863 696489862 302852024#1 302852024#2 -696248324#4 -695653143#1 19870935#0 696248317#0 696248317#1 1419295011 696248315#0 40349240#0 40349240#1 696513303#1 24223114#0 688969971 -22943049#1 22943050#2 -19821740#11 -19821740#7 -19821740#4 -688758271#6 -688758274 -130822234#19 -130822234#18 -19978070#4"/>
    </vehicle>
    <vehicle id="4" depart="12.00" departLane="best" departPos="random" departSpeed="max">
        <route edges="120623183#0 120623183#3 -23035682#2 690320632 690320628#0 692272758#0 70400957 262195525#0 -623146116#2 1350613934#2 1350613934#4 130830296#0 130830296#2 130830296#4 130830296#5 695502507 695503350 1267033587#1 1267033587#3 19821704#0 19821704#2 1259664878#0 1237215042#0 1237215042#2 1237215042#4 1237215042#5 -130845019#2 -688968380 -130844977#1"/>
    </vehicle>
    <vehicle id="5" depart="15.00" departLane="best" departPos="random" departSpeed="max">
        <route edges="-381427100 697842144 259644271#1 259644271#2 381431263#7 23025882#0 23025882#4 23025882#5 23025882#6 23025882#8 23025882#9 23025882#11 23025882#13 697862993 697214214#2 697862989 42505011#1 -690320651 690320632 690320628#0 692272758#0 70400957 262195525#0 -623146116#2 1350613934#2 1350613934#4 19821513#0 19821513#2 19821513#4 19821513#6 19821513#7 19821513#8 21992504#0 19821740#0 19821740#5 19821740#8 1419506392#0 733131379 688969971 733131380 695717819#0 695717819#1 24569151#0 40349240#0 40349240#1 696513303#1 1308983358#0 19793641#0 19793641#2 19793641#3"/>
    </vehicle>
    <vehicle id="6" depart="18.00" departLane="best" departPos="random" departSpeed="max">
        <route edges="-130821718#0 130821718#0 -22943292#4 -22943292#2 -22943292#1 38429651#0 38429651#1 22882584#0 -130820266#1 130820269#2 130820269#3 -23976757#1 22882580#6 22882580#7 385508912#4 93293838#0 385508913#0 695671317 695671316#0 695671315#0 24871754#0 693637901 22882545#0 22882545#1 22882544#2 -22882543#2 -22882543#0 -41704361 27575551#5 89641214 -27575545#2 -27575545#0"/>
    </vehicle>
    <vehicle id="7" depart="21.00" departLane="best" departPos="random" departSpeed="max">
        <route edges="243118981#0 243118977#3 243118975#1 540883811#1 540883811#2 90429191#2 635485290#1 635485290#2 635485290#4 688975362 1308959868#0 1216995275#0 -689018015 -689012448#3 -689018014 -199989363#9 -199989363#4 -689012450#1 -689012455#5 -689012455#0 -689012456#7 -689012456#4 -689012456#1 -689012456#0 -695520769#2 -1028906331#9 -1028906331#3 22802823#0 623146110#0-AddedOnRampEdge 623146110#0 696240644 22802783#0 130837945#0 130837945#2 -130822232#6 -130822232#4 -130822232#1 130822234#6 130822234#10 130822234#12 130822234#14 130822234#15 130822234#19 688758274 688758271#0 19821740#0 19821740#5 19821740#8 1419506392#0 733131379 688969971 733131380 695717819#0 695717819#1 24569151#0 40349240#0 40349240#1 696513303#1 1308983358#0 19793641#0 19793641#2 19793641#3 19793641#5 19793641#6 19793641#7 77991174 77991175#1 77991175#2 77991175#3 200442617#0 200442617#2 200442617#3"/>
    </vehicle>
    <vehicle id="8" depart="24.00" departLane="best" departPos="random" departSpeed="max">
        <route edges="-382406378#1 -22943166#12 -22943166#10 -19821740#4 1259664884#0 1259664884#3 1259664884#5 1259664884#6 -19821704#3 -19821704#1 -1267033587#5 -1267033587#2 -1267033587#0 695502506 698749952#0 342881869#0 342881869#5 342881869#7 342881869#9 342881869#11 342881869#12 -688947792 22943121"/>
    </vehicle>
    <vehicle id="9" depart="27.00" departLane="best" departPos="random" departSpeed="max">
        <route edges="690320613#3 690320609 21992193#0 692333610#0 38429675#0 38429675#2 -1214120999#1"/>
    </vehicle>
    <vehicle id="10" depart="30.00" departLane="best" departPos="random" departSpeed="max">
        <route edges="690272657#3 -90447863#16 -90447863#15 -90447863#13 -90447863#12 -90447863#11 -90447863#10 -90447863#8 -90447863#7 -90447863#6 -90447863#5 -90447863#4 -90447863#3 -90447863#2 -90447863#1 -689012455#5 -689012455#0 -689012456#7 -689012456#4 -689012456#1 -689012456#0 -695520769#2 -1028906331#9 -1028906331#3 22802823#0 623146110#0-AddedOnRampEdge 623146110#0 696240644 22802783#0 130837945#0 130837945#2 -130822232#6 -130822232#4 -130822232#1 130822234#6 130822234#10 695502507 695502506 698749952#0 342881869#0 342881869#5 36812785#11 36812785#12"/>
    </vehicle>
    <vehicle id="11" depart="33.00" departLane="best" departPos="random" departSpeed="max">
        <route edges="-88308897#1 -88308897#0 697041762#0 -263325455#2 695653151#1 26765745#0 695717809#0 -695508271#1 -382406379#2 -382406379#1 -382406379#0 -19821233#5 -19821233#1 -19821513#8 -19821513#7 -19821513#6 -19821513#4 -19821513#3 -19821513#1 130830296#0 130830296#2 130830296#4 130830296#5 695502507 695502506 698749952#0 342881869#0 -23784448#2"/>
    </vehicle>
    <vehicle id="12" depart="36.00" departLane="best" departPos="random" departSpeed="max">
        <route edges="90447863#2 -90447863#2 -90447863#1 -689012455#5 381431264#0 698306854#2 689200338#0 381431263#4 381431263#6 381431263#7 23025882#0 23025882#4 23025882#5 23025882#6 23025882#8 23025882#9 23025882#11 23025882#13 697862993 697214214#2 697862989 42505011#1 -690320651 690320632 690320628#0 692272758#0 696529205#0 696529205#1 1419295009 696529206#4 696748479#0 696748479#1 696706943#0 696529202#0 14618090 40349239 701937782#0 -250699717#4 88308826 88308897#0 88308897#1 88308897#3 88308897#4 -88308819#1 -88308811#0"/>
    </vehicle>
    <vehicle id="13" depart="39.00" departLane="best" departPos="random" departSpeed="max">
        <route edges="-199954902#2 -199954902#1 19822355#0 42505011#1 -690320651 690320632 690320628#0 692272758#0 70400957 262195525#0 -623146116#2 1350613934#2 1350613934#4 19821513#0 19821513#2 19821513#4 19821513#6 19821513#7 19821513#8 21992504#0 19821740#0 19821740#5 19821181#0 19821181#2 -200733758"/>
    </vehicle>
    <vehicle id="14" depart="42.00" departLane="best" departPos="random" departSpeed="max">
        <route edges="695717816#0 26131799#0 23003439#5"/>
    </vehicle>
    <vehicle id="15" depart="45.00" departLane="best" departPos="random" departSpeed="max">
        <route edges="690320592#0 689186745#0 301752117 692343500#0 19976925#0 342886918#0 342886918#2 22943125#0 688947792 342881869#14 342881869#15 342881869#16 1419045825#1 47484424"/>
    </vehicle>
    <vehicle id="16" depart="48.00" departLane="best" departPos="random" departSpeed="max">
        <route edges="19979581#7 -19979581#7 -19979581#6 -19979581#5 -19979581#2 695511038#0 93303056#0 692343497#0 19822654#0 1028906331#0 1028906331#4 1028906331#10 689012456#0 689012456#1 689012456#2 689012456#5 689012455#0 381431264#0 698306854#2 689200338#0 381431263#4 381431263#6 381431263#7 90564611#0 90564611#2 90564611#3 90564609#0 90564606"/>
    </vehicle>
    <vehicle id="17" depart="51.00" departLane="best" departPos="random" departSpeed="max">
        <route edges="-90447868#4 -90447868#3 -90447868#2 -90447868#1 -199989363#4 -689012450#1 -689012455#5 -689012455#0 -689012456#7 -689012456#4 -689012456#1 -689012456#0 -695520769#2 -1028906331#9 -1028906331#3 22802823#0 623146110#0-AddedOnRampEdge 623146110#0 696240644 22802783#0 130837945#0 130837945#2 -130822232#6 -130822232#4 -130822232#1 130822234#6 130822234#10 130822234#12 130822234#14 130822234#15 130822234#19 688758274 688758271#0 19821740#0 19821740#5 19821740#8 1419506392#0 733131379 688969971 733131380 695717819#0 695717819#1 24569151#0 40349240#0 -19820683#1 21022811#1"/>
    </vehicle>
    <vehicle id="18" depart="54.00" departLane="best" departPos="random" departSpeed="max">
        <route edges="693636243#2 693636241 693636240 385508913#0 695671317 695671316#0 695671315#0 24871754#0 693637901 693430262#0 694822043 107936721#0 302532518#0 302532518#3 302532518#4 302532518#6 302532518#7 302532518#11 302532518#12 302532518#18 22376427#0 77991177#0 235769645#0 235769645#4"/>
    </vehicle>
    <vehicle id="19" depart="57.00" departLane="best" departPos="random" departSpeed="max">
        <route edges="696489862 302852024#1 302852024#2 -696248324#4 -695653143#1 19870935#0 696248317#0 696248317#1 1419295011 696248315#0 40349240#0 40349240#1 696513303#1 1308983358#0 19793641#0 19793641#2 22758912 148630582 235769649#8 22758905#0 22758905#3 697199484 -27575551#5 41704361 482770364#6 482770364#7 -22882544#5 -22882544#4 22882544#3"/>
    </vehicle>
    <vehicle id="20" depart="60.00" departLane="best" departPos="random" departSpeed="max">
        <route edges="342886918#3 342886918#6 342886918#7 688957084 688957083 42759282#0 42759282#4 688962151#0 -342881869#19 -342881869#15 -342881869#14 -342881869#13 -342881869#11 -342881869#9 -342881869#8 -342881869#6 -23784448#2 -19978480#1 -19979581#7 -19979581#6 -19979581#5 -19979581#2 695511038#0 93303056#0 692343497#0 19822654#0 1028906331#0 1028906331#4 1028906331#10 689012456#0 689012456#1 689012456#2 689012456#5 -138507652#19 -138507652#12 -138507652#9 -138507652#8 -138507652#6 -138507652#5"/>
    </vehicle>
    <vehicle id="21" depart="63.00" departLane="best" departPos="random" departSpeed="max">
        <route edges="-38653200#0 696739656#0 38653200#1 38653200#4 696724411#0 19870098#0 19870098#4 19870098#5 19870098#6 19870098#8 19870098#10 696730378#0 -698102296#4 -698102296#0 696489863 696489862 302852024#1 302852024#2 -698102297#1 -193292264#4 -193292267 -203111482#8 -203111482#5 22882796#0 192219555#0 192219555#1 1259664883 23044196#0 23044196#2 23044196#3 21262382#0 21262382#2 21262382#3 950278594#0 950278594#1 -26827488#1 -696192799#0"/>
    </vehicle>
    <vehicle id="22" depart="66.00" departLane="best" departPos="random" departSpeed="max">
        <route edges="-19822414#1 -19822393#1 -19822393#0 -23035682#2 690320632 690320628#0 692272758#0 70400957 262195525#0 -623146116#2 1350613934#2 1350613934#4 130830296#0 130830296#2 130830296#4 130830296#5 695502507 695503350 1267033587#1 1267033587#3 19821704#0 19821704#2 1267029558#0 1267029558#2 1267029558#4 -1312173238 1259664877#0 1259664877#1 1259664877#2 1259664877#8 1259664877#10 1259664877#14 1259664877#15 19977173#0 23025848#0 693636241 22943109#0 693636238#0 -130820269#7 -130820269#5 -130820269#4 -130820269#3 38434953#0 38434953#1 -38434953#1"/>
    </vehicle>
    <vehicle id="23" depart="69.00" departLane="best" departPos="random" departSpeed="max">
        <route edges="-206087971 -26201917#0 -26201918 200442617#3 200442617#4 55680846#0 55680846#1 21023876#0 21023458#0 259532610#0 21024449 21023952 696513303#1 24223114#0 688969971 -22943049#1 22943050#2 -19821740#11 -19821740#7 -19821740#4 1259664884#0 1259664884#3 1259664884#5 1259664884#6 -19821704#3 -19821704#1 -1267033587#5 -1267033587#2 -1267033587#0 695502506 698749952#0 342881869#0 -23784448#2 -19978480#1 -19979581#7 -19979581#6 -19979581#5 -19979581#2 695511038#0 93303056#0 692343497#0 19822654#0 1028906331#0 1028906331#4 1028906331#10 689012456#0 689012456#1 689012456#2 689012456#5 689012455#0 689012455#1 689012450#0 199989363#0 199989363#5 689018014 689012448#0 689018015 1259708339#0 1308959867#0 690054413#1 694361374 1173215032 688953178 688930917 694361371 -948889608 690516608#0 690516608#2 -690516608#2"/>
    </vehicle>
    <vehicle id="24" depart="72.00" departLane="best" departPos="random" departSpeed="max">
        <route edges="24028363#4 -381431263#4 -381431263#3 -698306854#2 -698306854#1 689012455#1 90447863#0 90447863#2 90447863#3 90447863#4 90447863#5 90447863#6 90447863#7 90447863#8 90447863#10 322604697#0 -690272655#1 -690272655#0 -90447848#1"/>
    </vehicle>
    <vehicle id="25" depart="75.00" departLane="best" departPos="random" departSpeed="max">
        <route edges="-90447860#0 -90447845#1 22980556#2 22980556#3 -699544168#4 -699544168#1 -22980555#4 -22980555#1 -689012456#1 -689012456#0 -695520769#2 -1028906331#9 -1028906331#3 22802823#0 623146110#0-AddedOnRampEdge 623146110#0 696240644 22802783#0 130837945#0 130837945#2 -130822232#6 -130822232#4 -130822232#1 130822234#6 130822234#10 695502507 695503350 1267033587#1 1267033587#3 19821704#0 19821704#2 1267029558#0 1267029558#2 1267029558#4 -1312173238 1259664877#0 1259664877#1 1259664877#2 1259664877#8 1259664877#10 1259664877#14 1259664877#15 19977173#0 148818707#0 -319824016"/>
    </vehicle>
    <vehicle id="26" depart="78.00" departLane="best" departPos="random" departSpeed="max">
        <route edges="-689012448#3 689012448#0 474164339#0 474164339#1 381426809#2 381426809#3 381426809#4 381426809#7 635485290#0 -689705120 -540883811#2 -138506509 243118979#1 90429191#0"/>
    </vehicle>
    <vehicle id="27" depart="81.00" departLane="best" departPos="random" departSpeed="max">
        <route edges="243118977#3 243118975#1 540883811#1 540883811#2 90429191#2 635485290#1 635485290#2 635485290#4 688975362 1308959868#0 1259708338#1 1259708343 635483486#0 635483486#7 342886913#0 1278964460#0 697831506#0 1278964459 1278964457 691529215 691529216#0 691529216#1 691529216#3 691529216#4 691529216#5 691529216#7 691529216#8 627946321#0 689176061#0 697182261#2 697182261#3 697862993 697214214#2 697862989 42505011#1 -690320651 690320632 690320628#0 692272758#0 696529205#0 696529205#1 1419295009 696529206#4 696748479#0 696748479#1 696706943#0 696529202#0 192219178#0 192219178#3 -19822596#1 -233674121#1 23044196#2 23044196#3"/>
    </vehicle>
    <vehicle id="28" depart="84.00" departLane="best" departPos="random" departSpeed="max">
        <route edges="-243118976 540883811#1 540883811#2 90429191#2 635485290#1 635485290#2 635485290#4 688975362 1308959868#0 1216995275#0 -689018015 -689012448#3 -689018014 -199989363#9 -199989363#4 -689012450#1 -689012455#5 -689012455#0 -689012456#7 -689012456#4 -689012456#1 -689012456#0 -695520769#2 -1028906331#9 -1028906331#3 22802823#0 623146110#0-AddedOnRampEdge 623146110#0 696240644 22802783#0 130837945#0 130837945#2 -130822232#6 -130822232#4 -130822232#1 130822234#6 130822234#10 695502507 695502506 698749952#0 342881869#0 342881869#5 36812785#11 36812785#12 36812785#14 36812785#15 47484420#0"/>
    </vehicle>
    <vehicle id="29" depart="87.00" departLane="best" departPos="random" departSpeed="max">
        <route edges="-24028363#0 24028346#2 -23025882#5 -23025882#4 -23025882#2 -381431263#7 -381431263#6 -381431263#4 -381431263#3 -698306854#2 -698306854#1 -689012455#0 -138507652#19 -138507652#12 90447877 -90447893#0"/>
    </vehicle>
    <vehicle id="30" depart="90.00" departLane="best" departPos="random" departSpeed="max">
        <route edges="927678217 -23311564#2 22882580#3 22882580#4 22882580#6 22882580#7 385508912#4 693636237 693636238#0 693636238#1 693067131#0 693067131#1 692333610#0 1259664876 690320604#0 24231251#0 690320613#0 -596795773#1 392493390#2 696452633 392493389#0 699540636#0 -243019178 243019178"/>
    </vehicle>
    <vehicle id="31" depart="93.00" departLane="best" departPos="random" departSpeed="max">
        <route edges="21023952 696513303#1 24223114#0 688969971 -22943049#1 22943050#2 -19821740#11 -19821740#7 -19821740#4 1259664884#0 1259664884#3 1259664884#5 1259664884#6 -19821704#3 -19821704#1 -1267033587#5 -1267033587#2 -1267033587#0 695502506 698749952#0 342881869#0 -23784448#2 -19978480#1 -19979581#7 -19979581#6 -19979581#5 -19979581#2 695511038#0 93303056#0 692343497#0 19822654#0 1028906331#0 1028906331#4 1028906331#10 689012456#0 689012456#1 689012456#2 689012456#5 689012455#0 689012455#1 689012450#0 199989363#0 199989363#5 689018014 689012448#0 689018015 1259708339#0 1308959867#0 690054413#1 694361374 1173215032 688953178 688930917 694361371 -170345943#2 170345942 -699556698#0 322606171#0"/>
    </vehicle>
    <vehicle id="32" depart="96.00" departLane="best" departPos="random" departSpeed="max">
        <route edges="695671313 693637905#0 55692095#0 55692095#2 693637903 693637902 22943160#0 688968378#1 688968378#6 688968377 688968374#0 688968374#1 688968374#3 -1419295055#1 -1237215042#9 -1237215042#7 -1237215042#4 -1237215042#3 -1237215042#1 -1259664878#1 -19821704#3 -19821704#1 -1267033587#5 -1267033587#2 -1267033587#0 695502506 698749952#0 342881869#0 -23784448#2 -19978480#1 -19979581#7 -19979581#6 -19979581#5 -19979581#2 695511038#0 93303056#0 692343497#0 19822654#0 1028906331#0 1028906331#4 1028906331#10 689012456#0 689012456#1 22980555#0 688956929"/>
    </vehicle>
    <vehicle id="33" depart="99.00" departLane="best" departPos="random" departSpeed="max">
        <route edges="-389883941#2 -22943144#1 696452633 -696452634 -22943137#2 -22943137#1 -22943137#0 -1259664877#8 -1259664877#7 -1259664877#1 -1259664877#0 1312173238 -1312173239"/>
    </vehicle>
    <vehicle id="34" depart="102.00" departLane="best" departPos="random" departSpeed="max">
        <route edges="-71381508#1 698771380 -130822232#4 -130822232#1 130822234#6 130822234#10 695502507 695502506 698749952#0 342881869#0 342881869#5 342881869#7 342881869#9 -688947790#2"/>
    </vehicle>
    <vehicle id="35" depart="105.00" departLane="best" departPos="random" departSpeed="max">
        <route edges="-331354985#1 331354985#0 -47484419#1 -47484419#0 -342881869#15 -342881869#14 -342881869#13 -342881869#11 -342881869#9 -342881869#8 -342881869#6 -23784448#2 -19978480#1 -19979581#7 -19979581#6 -19979581#5 -19979581#2 695511038#0 93303056#0 692343497#0 19822654#0 1028906331#0 1028906331#4 1028906331#10 689012456#0 689012456#1 22980555#0 22980555#2 699544170 699544168#2 -22980556#3 -22980556#2 90447845#1 90447845#2 90447833#0 90447833#1"/>
    </vehicle>
    <vehicle id="36" depart="108.00" departLane="best" departPos="random" departSpeed="max">
        <route edges="697182261#3 697862993 -699619659#3"/>
    </vehicle>
    <vehicle id="37" depart="111.00" departLane="best" departPos="random" departSpeed="max">
        <route edges="258507390#0 258507390#1 258507390#2 691530624#0 691530623#0 691530623#3 693430263 696250231 733133104#0 41704360#0 688968374#0 688968374#1 688968374#3 -1419295055#1 -1237215042#9 -1237215042#7 -1237215042#4 -1237215042#3 -1237215042#1 -1259664878#1 -19821704#3 -19821704#1 -1267033587#5 -1267033587#2 -1267033587#0 695502506 698749952#0 342881869#0 -23784448#2 -19978480#1 -19979581#7 -19979581#6 -19979581#5 -19979581#2 695511038#0 93303056#0 692343497#0 19822654#0 1028906331#0 1028906331#4 1028906331#10 689012456#0 689012456#1 689012456#2 689012456#5 689012455#0 689012455#1 689012450#0 199989363#0 199989363#5 689018014 689012448#0 689018015 1259708339#0 1308959867#0 690054413#1 694361374 1173215032 688953178 688930917 694361371 -948889608 690516608#0 690516608#2 690516608#3 -699556703 -322606171#1 -927524289"/>
    </vehicle>
    <vehicle id="38" depart="114.00" departLane="best" departPos="random" departSpeed="max">
        <route edges="79888971#5 699625397#0 689960225#2 689960225#3 689960225#4 689960225#5 689206997 689207004 689207005#0 689207005#1-AddedOnRampEdge 689207005#1 689206998#0 688956464#0 688953177 1173215033 1173215033-AddedOffRampEdge 1308959869#0"/>
    </vehicle>
    <vehicle id="39" depart="117.00" departLane="best" departPos="random" departSpeed="max">
        <route edges="-688947790#1 688947790#0 688947790#2 -342881869#9 -342881869#8 -342881869#6 -342881869#4 -698749952#0 -698749953 -695502505 -130830296#9 -130830296#4 -130830296#3 -130830296#1 -1350613934#4 -47484434#6 -47484434#4 -47484434#3 -47484434#2"/>
    </vehicle>
    <vehicle id="40" depart="120.00" departLane="best" departPos="random" departSpeed="max">
        <route edges="21992504#0 1259664884#0 1259664884#3 1259664884#5 1259664884#6 1267029558#0 1267029558#2 1267029558#4 -1312173238 1259664877#0 1259664877#1 1259664877#2 1259664877#8 -320599202 148818702#4 269499250#0 -669331673"/>
    </vehicle>
    <vehicle id="41" depart="123.00" departLane="best" departPos="random" departSpeed="max">
        <route edges="22882566#2 22882566#3 22882566#7 22882566#8 22882566#10 22882566#11 22882566#13 22882566#14 21991902#1 385508912#0 385508912#4 693636237 693636238#0 693636238#1 693067131#0 693067131#1 692333610#0 1259664876 690320604#0 24231251#0 690320613#0 -596795773#1 392493390#2 22943144#0 148818706#0 148818706#1 331353295 743764375#2 743764375#5"/>
    </vehicle>
    <vehicle id="42" depart="126.00" departLane="best" departPos="random" departSpeed="max">
        <route edges="96957117#0 -696403898#2 -696403897 -47484420#1 36812785#16 19821525#0 19821525#3 -1267033587#5 -1267033587#2 -1267033587#0 -695502505 -130830296#9 -130830296#4 -130830296#3 -130830296#1 19821513#0"/>
    </vehicle>
    <vehicle id="43" depart="129.00" departLane="best" departPos="random" departSpeed="max">
        <route edges="-19979581#6 -19979581#5 -19979581#2 695511038#0 93303056#0 692343497#0 19822654#0 1028906331#0 1028906331#4 1028906331#10 689012456#0 689012456#1 689012456#2 689012456#5 689012455#0 381431264#0 698306854#2 689200338#0 381431263#4 381431263#6 381431263#7 23025882#0 23025882#4 23025882#5 23025882#6 23025882#8 23025882#9 23025882#11 23025882#13 -1415527424"/>
    </vehicle>
    <vehicle id="44" depart="132.00" departLane="best" departPos="random" departSpeed="max">
        <route edges="-22758905#3 -22758905#2 235769649#9 258507390#0 258507390#1 258507390#2 691530624#0 691530623#0 691530623#3 693430263 696250231 733133104#0 41704360#0 688968374#0 688968374#1 688968374#3 -1419295055#1 -1237215042#9 -1237215042#7 -1237215042#4 -1237215042#3 -1237215042#1 -1259664878#1 -19821704#3 -19821704#1 -1267033587#5 -1267033587#2 -1267033587#0 695502506 698749952#0 342881869#0 -23784448#2 -19978480#1 -19979581#7 -19979581#6 -19979581#5 -19979581#2 695511038#0 93303056#0 692343497#0 19822654#0 1028906331#0 1028906331#4 1028906331#10 689012456#0 689012456#1 689012456#2 689012456#5 689012455#0 381431264#0 698306854#2 689200338#0 381431263#4 381431263#6 381431263#7 23025882#0 24028276#0 24028276#2"/>
    </vehicle>
    <vehicle id="45" depart="135.00" departLane="best" departPos="random" departSpeed="max">
        <route edges="689176059#0 697182261#2 697182261#3 697862993 697214214#2 697862989 42505011#1 -690320651 690320632 690320628#0 692272758#0 70400957 262195525#0 -623146116#2 1350613934#2 1350613934#4 130830296#0 130830296#2 130830296#4 130830296#5 695502507 695502506 698749952#0 342881869#0 342881869#5 36812785#11 36812785#12 36812785#14 36812785#15 47484420#0 47484420#2 696403898#0 696403898#3 -22943144#1 -392493390#2 -392493390#1 -392493390#0 690320613#3 690320609 21992193#0 692333610#0 689753508 55692096#0 55692096#1 55692096#2 55692096#4 55692096#8 1214280620#0 1214280621"/>
    </vehicle>
    <vehicle id="46" depart="138.00" departLane="best" departPos="random" departSpeed="max">
        <route edges="-175230868 -19822616#11 -19822616#10 -19822616#9 -19822616#8 88308917#0 88308917#1 88308846#0 -26827488#1 -696192799#0 -23035682#11 -23035682#4 -23035682#2 690320651 689230616 697231511 697231512#1 697231512#5 697862991 697862994#3 689174078 800258872#0 -691529216#9 -691529216#7 -691529216#5 -691529216#4 -691529216#3 -691529216#2 -691529216#0 -691529215 -1278964458 -1278964459 -697831506#1 -1278964460#1 -90564601#5 -90564601#2 -90564601#1 -90564601#0"/>
    </vehicle>
    <vehicle id="47" depart="141.00" departLane="best" departPos="random" departSpeed="max">
        <route edges="965528711#2 965528711#3 1259664881#0 19822582#0 19822582#1 19822582#2 200590676 23044196#0 23044196#2 23044196#3 -696946463#2 -1211778520 -233674120 -192219178#1 14618090 40349239 701937782#0 695657270 26765808#0 695717803#0 695717803#1 695717803#1-AddedOffRampEdge 263326279#0 1351121542#0 1351121542#3 1351121542#5 21992504#0 1259664884#0 1259664884#3 1259664884#5 1259664884#6 1267029558#0 1267029558#2 1267029558#4 -1312173238 1259664877#0 1259664877#1 1259664877#2 1259664877#8 22943137#0 22943137#1 19977502#0"/>
    </vehicle>
    <vehicle id="48" depart="144.00" departLane="best" departPos="random" departSpeed="max">
        <route edges="90564609#1 -90564614#2 -90564614#1 23025882#6 23025882#8 23025882#9 23025882#11 23025882#13 697862993 697214214#2 697862989 42505011#1 -690320651 690320632 690320628#0 692272758#0 696529205#0"/>
    </vehicle>
    <vehicle id="49" depart="147.00" departLane="best" departPos="random" departSpeed="max">
        <route edges="-1237215042#4 -1237215042#3 -1237215042#1 -1259664878#1 -19821704#3 -19821704#1 -1267033587#5 -1267033587#2 -1267033587#0 -695502505 -130830296#9 -130830296#4 -130830296#3 -130830296#1 -85003034#5 22802800#0 22802800#3 22802800#4 696257947#0 19979827#0 695518071#0 690320638#0 690320638#1 690023271#0 130837943 690320628#0 692272758#0 696529205#0 41704358#0 1067133397#0 -72739202 41704359#1"/>
    </vehicle>
    <vehicle id="50" depart="150.00" departLane="best" departPos="random" departSpeed="max">
        <route edges="27575769 -22376433#1 -302532518#17 -302532518#11 -302532518#10 -302532518#6 -302532518#5 -302532518#3 -302532518#2 21991902#0 21991902#1 385508912#0 385508912#4 93293838#0 385508913#0 695671317 695671316#0 695671315#0 688968378#1 688968378#6 688968377 688968374#0 688968374#1 688968374#3 -1419295055#1 -1237215042#9 -1237215042#7 -1237215042#4 -1237215042#3 -1237215042#1 -1259664878#1 -19821704#3 -19821704#1 -1267033587#5 -1267033587#2 -1267033587#0 -695502505 -130830296#9 -130830296#4 -130830296#3 -130830296#1 -85003034#5 22802800#0 22802800#3 22802800#4 696257947#0 19979827#0 695518071#0 690320638#0 -1343336738 -19979947#0 361121941 19979971#0"/>
    </vehicle>
    <vehicle id="51" depart="153.00" departLane="best" departPos="random" departSpeed="max">
        <route edges="-689012448#3 689012448#0 474164339#0 474164339#1 381426809#2 381426809#3 381426809#4 381426809#7 635485290#0 -689705120 -540883811#2 -540883811#1 243118976"/>
    </vehicle>
    <vehicle id="52" depart="156.00" departLane="best" departPos="random" departSpeed="max">
        <route edges="-22802755 87891397#2 -148559368#0 -696170691#1 -696170691#0 19821513#7 19821513#8 21992504#0 1259664884#0 1259664884#3 1259664884#5 1259664884#6 1267029558#0"/>
    </vehicle>
    <vehicle id="53" depart="159.00" departLane="best" departPos="random" departSpeed="max">
        <route edges="130845501#0 130845019#0 -1237215042#7 -1237215042#4 -1237215042#3 -1237215042#1 -1259664878#1 -19821704#3 -19821704#1 -1267033587#5 -1267033587#2 -1267033587#0 695502506 698749952#0 342881869#0 -23784448#2 -19978480#1 -19979581#7 -19979581#6 -19979581#5 -19979581#2 695511038#0 93303056#0 692343497#0 19822654#0 1028906331#0 1028906331#4 1028906331#10 689012456#0 689012456#1 689012456#2 689012456#5 689012455#0 689012455#1 689012450#0 199989363#0 90447868#0 90447868#2 90447868#3 90447868#4 90447857"/>
    </vehicle>
    <vehicle id="54" depart="162.00" departLane="best" departPos="random" departSpeed="max">