<?xml version="1.0" encoding="UTF-8"?>

<!-- generated on 2025-08-22 17:31:45.932336 by randomTrips.py UNKNOWN
<configuration>
    <net-file value="osm.net.xml.gz"/>
    <output-trip-file value="trips_dens_1.5ps.rou.xml"/>
    <trip-attributes value="departLane=&quot;best&quot; departPos=&quot;random&quot; departSpeed=&quot;max&quot;"/>
    <validate value="True"/>
    <period value="0.666666"/>
</configuration>
-->

<routes xmlns:xsi="http://www.w3.org/2001/XMLSchema-instance" xsi:noNamespaceSchemaLocation="http://sumo.dlr.de/xsd/routes_file.xsd">
    <trip id="0" depart="0.00" from="155884413#6" to="-155875650#4" departLane="best" departPos="random" departSpeed="max"/>
    <trip id="1" depart="0.67" from="-175562299#1" to="-175561488#10" departLane="best" departPos="random" departSpeed="max"/>
    <trip id="2" depart="1.33" from="175561488#5" to="174274266#0" departLane="best" departPos="random" departSpeed="max"/>
    <trip id="3" depart="2.00" from="183224582#0" to="-155875790#10" departLane="best" departPos="random" departSpeed="max"/>
    <trip id="4" depart="2.67" from="-278539496" to="-155875658#2" departLane="best" departPos="random" departSpeed="max"/>
    <trip id="5" depart="3.33" from="-175561402#0" to="155875644#4" departLane="best" departPos="random" departSpeed="max"/>
    <trip id="6" depart="4.00" from="-155875650#5" to="-175560823#4" departLane="best" departPos="random" departSpeed="max"/>
    <trip id="7" depart="4.67" from="155884444" to="155875708" departLane="best" departPos="random" departSpeed="max"/>
    <trip id="8" depart="5.33" from="-175561442#0" to="155875850#2" departLane="best" departPos="random" departSpeed="max"/>
    <trip id="9" depart="6.00" from="175562758#13" to="-155875620#2" departLane="best" departPos="random" departSpeed="max"/>
    <trip id="10" depart="6.67" from="175562720#1" to="175561246" departLane="best" departPos="random" departSpeed="max"/>
    <trip id="11" depart="7.33" from="-175563102#5" to="-155884528#1" departLane="best" departPos="random" departSpeed="max"/>
    <trip id="12" depart="8.00" from="557168426#1" to="-175563102#15" departLane="best" departPos="random" departSpeed="max"/>
    <trip id="13" depart="8.67" from="-155875797#1" to="-155875802#1" departLane="best" departPos="random" departSpeed="max"/>
    <trip id="14" depart="9.33" from="175563102#2" to="155875883#4" departLane="best" departPos="random" departSpeed="max"/>
    <trip id="15" depart="10.00" from="175562758#0" to="175561841" departLane="best" departPos="random" departSpeed="max"/>
    <trip id="16" depart="10.67" from="155875659#0" to="630498041" departLane="best" departPos="random" departSpeed="max"/>
    <trip id="17" depart="11.33" from="-183224538" to="155875733#5" departLane="best" departPos="random" departSpeed="max"/>
    <trip id="18" depart="12.00" from="175562949#3" to="155884413#2" departLane="best" departPos="random" departSpeed="max"/>
    <trip id="19" depart="12.67" from="175584966" to="155875797#11" departLane="best" departPos="random" departSpeed="max"/>
    <trip id="20" depart="13.33" from="175560823#13" to="-155875675#2" departLane="best" departPos="random" departSpeed="max"/>
    <trip id="21" depart="14.00" from="-175561488#4" to="-175562604#0" departLane="best" departPos="random" departSpeed="max"/>
    <trip id="22" depart="14.67" from="-155875743#2" to="-175561508#4" departLane="best" departPos="random" departSpeed="max"/>
    <trip id="23" depart="15.33" from="-155875821" to="-175562308" departLane="best" departPos="random" departSpeed="max"/>
    <trip id="24" depart="16.00" from="155884412#0" to="-175585016" departLane="best" departPos="random" departSpeed="max"/>
    <trip id="25" depart="16.67" from="-175585037#1" to="-175561028" departLane="best" departPos="random" departSpeed="max"/>
    <trip id="26" depart="17.33" from="-175562216#0" to="496758030#0" departLane="best" departPos="random" departSpeed="max"/>
    <trip id="27" depart="18.00" from="155884438#1" to="155884384#2" departLane="best" departPos="random" departSpeed="max"/>
    <trip id="28" depart="18.67" from="-173941212#0" to="175561830#0" departLane="best" departPos="random" departSpeed="max"/>
    <trip id="29" depart="19.33" from="-155884554#0" to="-183224558" departLane="best" departPos="random" departSpeed="max"/>
    <trip id="30" depart="20.00" from="729271571#0" to="155884519#1" departLane="best" departPos="random" departSpeed="max"/>
    <trip id="31" depart="20.67" from="155875685#4" to="175560823#5" departLane="best" departPos="random" departSpeed="max"/>
    <trip id="32" depart="21.33" from="175563094#0" to="175562535" departLane="best" departPos="random" departSpeed="max"/>
    <trip id="33" depart="22.00" from="-175561488#7" to="-155875659#1" departLane="best" departPos="random" departSpeed="max"/>
    <trip id="34" depart="22.67" from="-175562911" to="-175562233#0" departLane="best" departPos="random" departSpeed="max"/>
    <trip id="35" depart="23.33" from="-175561183" to="557162422" departLane="best" departPos="random" departSpeed="max"/>
    <trip id="36" depart="24.00" from="175585026#0" to="-175562918#0" departLane="best" departPos="random" departSpeed="max"/>
    <trip id="37" depart="24.67" from="155884475" to="-239350182#1" departLane="best" departPos="random" departSpeed="max"/>
    <trip id="38" depart="25.33" from="278539444" to="-627053238#0" departLane="best" departPos="random" departSpeed="max"/>
    <trip id="39" depart="26.00" from="-175562182#0" to="-175561957" departLane="best" departPos="random" departSpeed="max"/>
    <trip id="40" depart="26.67" from="155875695#1" to="-175562144#1" departLane="best" departPos="random" departSpeed="max"/>
    <trip id="41" depart="27.33" from="155875747#1" to="278539459" departLane="best" departPos="random" departSpeed="max"/>
    <trip id="42" depart="28.00" from="-239350182#2" to="-175561402#1" departLane="best" departPos="random" departSpeed="max"/>
    <trip id="43" depart="28.67" from="992079381#1" to="155875650#3" departLane="best" departPos="random" departSpeed="max"/>
    <trip id="44" depart="29.33" from="-155875790#6" to="-155875675#5" departLane="best" departPos="random" departSpeed="max"/>
    <trip id="45" depart="30.00" from="-155875868#0" to="155884427#7" departLane="best" departPos="random" departSpeed="max"/>
    <trip id="46" depart="30.67" from="175562395#0" to="-278539529#2" departLane="best" departPos="random" departSpeed="max"/>
    <trip id="47" depart="31.33" from="-155875720" to="-183224582#0" departLane="best" departPos="random" departSpeed="max"/>
    <trip id="48" depart="32.00" from="746275618#4" to="155875673#1" departLane="best" departPos="random" departSpeed="max"/>
    <trip id="49" depart="32.67" from="627053238#0" to="175585039#2" departLane="best" departPos="random" departSpeed="max"/>
    <trip id="50" depart="33.33" from="-155875623#22" to="175561508#8" departLane="best" departPos="random" departSpeed="max"/>
    <trip id="51" depart="34.00" from="173941393#1" to="155875685#2" departLane="best" departPos="random" departSpeed="max"/>
    <trip id="52" depart="34.67" from="-175562202" to="155884528#1" departLane="best" departPos="random" departSpeed="max"/>
    <trip id="53" depart="35.33" from="-155875870#1" to="-376769519" departLane="best" departPos="random" departSpeed="max"/>
    <trip id="54" depart="36.00" from="-557162416" to="557168432" departLane="best" departPos="random" departSpeed="max"/>
    <trip id="55" depart="36.67" from="175585022" to="-175562158" departLane="best" departPos="random" departSpeed="max"/>
    <trip id="56" depart="37.33" from="-746275618#2" to="-173941602#1" departLane="best" departPos="random" departSpeed="max"/>
    <trip id="57" depart="38.00" from="278539430#1" to="183224564" departLane="best" departPos="random" departSpeed="max"/>
    <trip id="58" depart="38.67" from="-175562745#1" to="155884516#0" departLane="best" departPos="random" departSpeed="max"/>
    <trip id="59" depart="39.33" from="155875854#1" to="-155884515" departLane="best" departPos="random" departSpeed="max"/>
    <trip id="60" depart="40.00" from="175561981#1" to="155875685#9" departLane="best" departPos="random" departSpeed="max"/>
    <trip id="61" depart="40.67" from="175562239#1" to="155875675#1" departLane="best" departPos="random" departSpeed="max"/>
    <trip id="62" depart="41.33" from="-1348920376#1" to="-175563009" departLane="best" departPos="random" departSpeed="max"/>
    <trip id="63" depart="42.00" from="-155875639#2" to="278539551#1" departLane="best" departPos="random" departSpeed="max"/>
    <trip id="64" depart="42.67" from="175585037#0" to="175563125#1" departLane="best" departPos="random" departSpeed="max"/>
    <trip id="65" depart="43.33" from="-175562774#3" to="-155875704" departLane="best" departPos="random" departSpeed="max"/>
    <trip id="66" depart="44.00" from="175585034" to="557166346#7" departLane="best" departPos="random" departSpeed="max"/>
    <trip id="67" depart="44.67" from="-155875782#3" to="155875615#0" departLane="best" departPos="random" departSpeed="max"/>
    <trip id="68" depart="45.33" from="-155875735#1" to="175562286" departLane="best" departPos="random" departSpeed="max"/>
    <trip id="69" depart="46.00" from="175562032#0" to="-155884410#0" departLane="best" departPos="random" departSpeed="max"/>
    <trip id="70" depart="46.67" from="-623710421" to="155875730#4" departLane="best" departPos="random" departSpeed="max"/>
    <trip id="71" depart="47.33" from="-175562182#1" to="183224582#2" departLane="best" departPos="random" departSpeed="max"/>
    <trip id="72" depart="48.00" from="-278539501" to="-175561183" departLane="best" departPos="random" departSpeed="max"/>
    <trip id="73" depart="48.67" from="155875663#2" to="175561843#1" departLane="best" departPos="random" departSpeed="max"/>
    <trip id="74" depart="49.33" from="746275618#1" to="155884557#0" departLane="best" departPos="random" departSpeed="max"/>
    <trip id="75" depart="50.00" from="-278539547#1" to="155875659#2" departLane="best" departPos="random" departSpeed="max"/>
    <trip id="76" depart="50.67" from="-155884381#0" to="-175561488#14" departLane="best" departPos="random" departSpeed="max"/>
    <trip id="77" depart="51.33" from="-175563102#14" to="155875850#0" departLane="best" departPos="random" departSpeed="max"/>
    <trip id="78" depart="52.00" from="-175561508#0" to="-175561433" departLane="best" departPos="random" departSpeed="max"/>
    <trip id="79" depart="52.67" from="-155875735#6" to="155884448" departLane="best" departPos="random" departSpeed="max"/>
    <trip id="80" depart="53.33" from="-175561488#7" to="278539486" departLane="best" departPos="random" departSpeed="max"/>
    <trip id="81" depart="54.00" from="175584961#5" to="-155875736#1" departLane="best" departPos="random" departSpeed="max"/>
    <trip id="82" depart="54.67" from="-175561666" to="173941985#3" departLane="best" departPos="random" departSpeed="max"/>
    <trip id="83" depart="55.33" from="-175561364#0" to="-155884413#3" departLane="best" departPos="random" departSpeed="max"/>
    <trip id="84" depart="56.00" from="278539536" to="155875785#1" departLane="best" departPos="random" departSpeed="max"/>
    <trip id="85" depart="56.67" from="-623710417#3" to="175562718#1" departLane="best" departPos="random" departSpeed="max"/>
    <trip id="86" depart="57.33" from="175562758#1" to="-174032654#0" departLane="best" departPos="random" departSpeed="max"/>
    <trip id="87" depart="58.00" from="-155875797#8" to="-278539547#0" departLane="best" departPos="random" departSpeed="max"/>
    <trip id="88" depart="58.67" from="-278539502" to="-67152547#1" departLane="best" departPos="random" departSpeed="max"/>
    <trip id="89" depart="59.33" from="175561442#1" to="173942218#2" departLane="best" departPos="random" departSpeed="max"/>
    <trip id="90" depart="60.00" from="-239350183" to="-175563102#7" departLane="best" departPos="random" departSpeed="max"/>
    <trip id="91" depart="60.67" from="175584966" to="-175561973#0" departLane="best" departPos="random" departSpeed="max"/>
    <trip id="92" depart="61.33" from="-174032654#0" to="-612501639#0" departLane="best" departPos="random" departSpeed="max"/>
    <trip id="93" depart="62.00" from="-278539496" to="-175562322" departLane="best" departPos="random" departSpeed="max"/>
    <trip id="94" depart="62.67" from="-175561973#11" to="278539541#1" departLane="best" departPos="random" departSpeed="max"/>
    <trip id="95" depart="63.33" from="-278557254" to="175585039#3" departLane="best" departPos="random" departSpeed="max"/>
    <trip id="96" depart="64.00" from="155875675#1" to="-155875685#11" departLane="best" departPos="random" departSpeed="max"/>
    <trip id="97" depart="64.67" from="992079385#0" to="175584951" departLane="best" departPos="random" departSpeed="max"/>
    <trip id="98" depart="65.33" from="623710417#4" to="278539546#1" departLane="best" departPos="random" departSpeed="max"/>
    <trip id="99" depart="66.00" from="175563102#5" to="-170844796#3" departLane="best" departPos="random" departSpeed="max"/>
    <trip id="100" depart="66.67" from="-669041722#6" to="-175561297#2" departLane="best" departPos="random" departSpeed="max"/>
    <trip id="101" depart="67.33" from="-239350182#6" to="-155875706" departLane="best" departPos="random" departSpeed="max"/>
    <trip id="102" depart="68.00" from="-183224549" to="67792326" departLane="best" departPos="random" departSpeed="max"/>
    <trip id="103" depart="68.67" from="-175562182#1" to="175562718#0" departLane="best" departPos="random" departSpeed="max"/>
    <trip id="104" depart="69.33" from="-557162423" to="-278539531" departLane="best" departPos="random" departSpeed="max"/>
    <trip id="105" depart="70.00" from="557168426#1" to="746275618#1" departLane="best" departPos="random" departSpeed="max"/>
    <trip id="106" depart="70.67" from="155875685#12" to="175561508#2" departLane="best" departPos="random" departSpeed="max"/>
    <trip id="107" depart="71.33" from="-155884516#1" to="-175562733" departLane="best" departPos="random" departSpeed="max"/>
    <trip id="108" depart="72.00" from="623710417#3" to="155875797#3" departLane="best" departPos="random" departSpeed="max"/>
    <trip id="109" depart="72.67" from="155875667#7" to="175562088#0" departLane="best" departPos="random" departSpeed="max"/>
    <trip id="110" depart="73.33" from="-155875687#3" to="155875817#0" departLane="best" departPos="random" departSpeed="max"/>
    <trip id="111" depart="74.00" from="-992079382#1" to="175585007#1" departLane="best" departPos="random" departSpeed="max"/>
    <trip id="112" depart="74.67" from="-155884528#2" to="612501647#3" departLane="best" departPos="random" departSpeed="max"/>
    <trip id="113" depart="75.33" from="-155875743#3" to="-173942126#1" departLane="best" departPos="random" departSpeed="max"/>
    <trip id="114" depart="76.00" from="155875790#9" to="174032652#3" departLane="best" departPos="random" departSpeed="max"/>
    <trip id="115" depart="76.67" from="-175561529" to="-155884381#6" departLane="best" departPos="random" departSpeed="max"/>
    <trip id="116" depart="77.33" from="183224562" to="-175561942" departLane="best" departPos="random" departSpeed="max"/>
    <trip id="117" depart="78.00" from="155875790#8" to="155884413#4" departLane="best" departPos="random" departSpeed="max"/>
    <trip id="118" depart="78.67" from="-278539488#0" to="155875816" departLane="best" departPos="random" departSpeed="max"/>
    <trip id="119" depart="79.33" from="155875639#0" to="408840879#1" departLane="best" departPos="random" departSpeed="max"/>
    <trip id="120" depart="80.00" from="-175560877#0" to="175561502" departLane="best" departPos="random" departSpeed="max"/>
    <trip id="121" depart="80.67" from="-175561753#0" to="-239350182#10" departLane="best" departPos="random" departSpeed="max"/>
    <trip id="122" depart="81.33" from="170844796#12" to="-175562758#2" departLane="best" departPos="random" departSpeed="max"/>
    <trip id="123" depart="82.00" from="-175562918#1" to="175562170" departLane="best" departPos="random" departSpeed="max"/>
    <trip id="124" depart="82.67" from="-155875736#1" to="-623710421" departLane="best" departPos="random" departSpeed="max"/>
    <trip id="125" depart="83.33" from="992079383" to="746275618#3" departLane="best" departPos="random" departSpeed="max"/>
    <trip id="126" depart="84.00" from="-155875738#1" to="-175561297#1" departLane="best" departPos="random" departSpeed="max"/>
    <trip id="127" depart="84.67" from="-175562182#1" to="376769519" departLane="best" departPos="random" departSpeed="max"/>
    <trip id="128" depart="85.33" from="175585039#2" to="183224606#2" departLane="best" departPos="random" departSpeed="max"/>
    <trip id="129" depart="86.00" from="-175585034" to="-155884539#0" departLane="best" departPos="random" departSpeed="max"/>
    <trip id="130" depart="86.67" from="175563001#3" to="175561396" departLane="best" departPos="random" departSpeed="max"/>
    <trip id="131" depart="87.33" from="155875858#2" to="68521369#1" departLane="best" departPos="random" departSpeed="max"/>
    <trip id="132" depart="88.00" from="155884466" to="-155875623#12" departLane="best" departPos="random" departSpeed="max"/>
    <trip id="133" depart="88.67" from="175562786#0" to="-175562758#13" departLane="best" departPos="random" departSpeed="max"/>
    <trip id="134" depart="89.33" from="155884531#3" to="557160760" departLane="best" departPos="random" departSpeed="max"/>
    <trip id="135" depart="90.00" from="-155884413#3" to="-155875883#3" departLane="best" departPos="random" departSpeed="max"/>
    <trip id="136" depart="90.67" from="-155875856#1" to="155875735#2" departLane="best" departPos="random" departSpeed="max"/>
    <trip id="137" depart="91.33" from="-175562281" to="155875890#0" departLane="best" departPos="random" departSpeed="max"/>
    <trip id="138" depart="92.00" from="175561132" to="-175560846#1" departLane="best" departPos="random" departSpeed="max"/>
    <trip id="139" depart="92.67" from="155884408" to="-175562170" departLane="best" departPos="random" departSpeed="max"/>
    <trip id="140" depart="93.33" from="-67152547#1" to="278539486" departLane="best" departPos="random" departSpeed="max"/>
    <trip id="141" depart="94.00" from="175563102#14" to="-155875797#14" departLane="best" departPos="random" departSpeed="max"/>
    <trip id="142" depart="94.67" from="-278539502" to="-175562299#7" departLane="best" departPos="random" departSpeed="max"/>
    <trip id="143" depart="95.33" from="-155875615#4" to="175562395#1" departLane="best" departPos="random" departSpeed="max"/>
    <trip id="144" depart="96.00" from="155884412#4" to="-175562138" departLane="best" departPos="random" departSpeed="max"/>
    <trip id="145" depart="96.67" from="175561508#5" to="155875733#4" departLane="best" departPos="random" departSpeed="max"/>
    <trip id="146" depart="97.33" from="-278539527#1" to="-155875623#18" departLane="best" departPos="random" departSpeed="max"/>
    <trip id="147" depart="98.00" from="-155875738#3" to="220005384#1" departLane="best" departPos="random" departSpeed="max"/>
    <trip id="148" depart="98.67" from="220005385#0" to="155875710" departLane="best" departPos="random" departSpeed="max"/>
    <trip id="149" depart="99.33" from="175563009" to="155875802#1" departLane="best" departPos="random" departSpeed="max"/>
    <trip id="150" depart="100.00" from="-155884459#1" to="-155884402" departLane="best" departPos="random" departSpeed="max"/>
    <trip id="151" depart="100.67" from="-175562776#0" to="278539463" departLane="best" departPos="random" departSpeed="max"/>
    <trip id="152" depart="101.33" from="175562505" to="175585039#2" departLane="best" departPos="random" departSpeed="max"/>
    <trip id="153" depart="102.00" from="183224606#1" to="-175561080#0" departLane="best" departPos="random" departSpeed="max"/>
    <trip id="154" depart="102.67" from="-175561973#1" to="-155875854#0" departLane="best" departPos="random" departSpeed="max"/>
    <trip id="155" depart="103.33" from="175562262" to="220005385#1" departLane="best" departPos="random" departSpeed="max"/>
    <trip id="156" depart="104.00" from="-278539444" to="155884413#7" departLane="best" departPos="random" departSpeed="max"/>
    <trip id="157" depart="104.67" from="-155884516#0" to="278539554" departLane="best" departPos="random" departSpeed="max"/>
    <trip id="158" depart="105.33" from="175584980#0" to="669041722#5" departLane="best" departPos="random" departSpeed="max"/>
    <trip id="159" depart="106.00" from="175562758#5" to="197805110#5" departLane="best" departPos="random" departSpeed="max"/>
    <trip id="160" depart="106.67" from="-155875650#0" to="175561968#3" departLane="best" departPos="random" departSpeed="max"/>
    <trip id="161" depart="107.33" from="-175563076#2" to="278557252" departLane="best" departPos="random" departSpeed="max"/>
    <trip id="162" depart="108.00" from="175562678#0" to="175585043#2" departLane="best" departPos="random" departSpeed="max"/>
    <trip id="163" depart="108.67" from="175562758#5" to="-175562216#0" departLane="best" departPos="random" departSpeed="max"/>
    <trip id="164" depart="109.33" from="175562302#1" to="-155875868#3" departLane="best" departPos="random" departSpeed="max"/>
    <trip id="165" depart="110.00" from="175585007#1" to="175585037#0" departLane="best" departPos="random" departSpeed="max"/>
    <trip id="166" depart="110.67" from="-175561488#1" to="175563040#2" departLane="best" departPos="random" departSpeed="max"/>
    <trip id="167" depart="111.33" from="-557166346#9" to="-175562774#1" departLane="best" departPos="random" departSpeed="max"/>
    <trip id="168" depart="112.00" from="175562471" to="-175561488#3" departLane="best" departPos="random" departSpeed="max"/>
    <trip id="169" depart="112.67" from="-155875646#5" to="-175560805#3" departLane="best" departPos="random" departSpeed="max"/>
    <trip id="170" depart="113.33" from="-175563040#2" to="175585043#3" departLane="best" departPos="random" departSpeed="max"/>
    <trip id="171" depart="114.00" from="612501647#3" to="-175562323#0" departLane="best" departPos="random" departSpeed="max"/>
    <trip id="172" depart="114.67" from="155884419#1" to="-239350182#7" departLane="best" departPos="random" departSpeed="max"/>
    <trip id="173" depart="115.33" from="67792311#0" to="155875685#11" departLane="best" departPos="random" departSpeed="max"/>
    <trip id="174" depart="116.00" from="278539545#1" to="-155875883#2" departLane="best" departPos="random" departSpeed="max"/>
    <trip id="175" depart="116.67" from="623710418#1" to="-173941602#1" departLane="best" departPos="random" departSpeed="max"/>
    <trip id="176" depart="117.33" from="612501643#1" to="-175562188#1" departLane="best" departPos="random" departSpeed="max"/>
    <trip id="177" depart="118.00" from="-155875858#0" to="-278557254" departLane="best" departPos="random" departSpeed="max"/>
    <trip id="178" depart="118.67" from="175561442#0" to="-175562904#3" departLane="best" departPos="random" departSpeed="max"/>
    <trip id="179" depart="119.33" from="155875845#0" to="155875653#2" departLane="best" departPos="random" departSpeed="max"/>
    <trip id="180" depart="120.00" from="-183224584#2" to="155875797#1" departLane="best" departPos="random" departSpeed="max"/>
    <trip id="181" depart="120.67" from="-175561981#3" to="175561488#1" departLane="best" departPos="random" departSpeed="max"/>
    <trip id="182" depart="121.33" from="-1348920377#2" to="278539545#3" departLane="best" departPos="random" departSpeed="max"/>
    <trip id="183" depart="122.00" from="155875663#0" to="175561508#5" departLane="best" departPos="random" departSpeed="max"/>
    <trip id="184" depart="122.67" from="175561508#7" to="173942053#0" departLane="best" departPos="random" departSpeed="max"/>
    <trip id="185" depart="123.33" from="-175585008#0" to="-155875735#9" departLane="best" departPos="random" departSpeed="max"/>
    <trip id="186" depart="124.00" from="155884539#1" to="-175563076#2" departLane="best" departPos="random" departSpeed="max"/>
    <trip id="187" depart="124.67" from="-175562904#0" to="175584987" departLane="best" departPos="random" departSpeed="max"/>
    <trip id="188" depart="125.33" from="175561227" to="-175562758#3" departLane="best" departPos="random" departSpeed="max"/>
    <trip id="189" depart="126.00" from="-239350183" to="-175562720#0" departLane="best" departPos="random" departSpeed="max"/>
    <trip id="190" depart="126.67" from="-155884390#0" to="-278539522" departLane="best" departPos="random" departSpeed="max"/>
    <trip id="191" depart="127.33" from="278539546#0" to="175560805#0" departLane="best" departPos="random" departSpeed="max"/>
    <trip id="192" depart="128.00" from="220005384#0" to="155884410#1" departLane="best" departPos="random" departSpeed="max"/>
    <trip id="193" depart="128.67" from="-175562758#13" to="155875726" departLane="best" departPos="random" departSpeed="max"/>
    <trip id="194" depart="129.33" from="-1348920376#1" to="-175562530" departLane="best" departPos="random" departSpeed="max"/>
    <trip id="195" depart="130.00" from="-278539530" to="155875797#6" departLane="best" departPos="random" departSpeed="max"/>
    <trip id="196" depart="130.67" from="155884471" to="-669041722#7" departLane="best" departPos="random" departSpeed="max"/>
    <trip id="197" depart="131.33" from="-278557252" to="-175561297#2" departLane="best" departPos="random" departSpeed="max"/>
    <trip id="198" depart="132.00" from="-623710417#4" to="278539471" departLane="best" departPos="random" departSpeed="max"/>
    <trip id="199" depart="132.67" from="175562495" to="-173941212#2" departLane="best" departPos="random" departSpeed="max"/>
    <trip id="200" depart="133.33" from="-155875782#0" to="155875658#5" departLane="best" departPos="random" departSpeed="max"/>
    <trip id="201" depart="134.00" from="155884400" to="-175563102#12" departLane="best" departPos="random" departSpeed="max"/>
    <trip id="202" depart="134.67" from="175562801#1" to="175562148#1" departLane="best" departPos="random" departSpeed="max"/>
    <trip id="203" depart="135.33" from="170844796#2" to="-175561488#14" departLane="best" departPos="random" departSpeed="max"/>
    <trip id="204" depart="136.00" from="-175560823#5" to="-155875650#3" departLane="best" departPos="random" departSpeed="max"/>
    <trip id="205" depart="136.67" from="175563102#8" to="-155875738#12" departLane="best" departPos="random" departSpeed="max"/>
    <trip id="206" depart="137.33" from="-278539477#0" to="155884440#1" departLane="best" departPos="random" departSpeed="max"/>
    <trip id="207" depart="138.00" from="-175560819#3" to="175561151" departLane="best" departPos="random" departSpeed="max"/>
    <trip id="208" depart="138.67" from="-720738693" to="-175561858#0" departLane="best" departPos="random" departSpeed="max"/>
    <trip id="209" depart="139.33" from="155884497#0" to="-155875620#0" departLane="best" departPos="random" departSpeed="max"/>
    <trip id="210" depart="140.00" from="175561830#1" to="175562377" departLane="best" departPos="random" departSpeed="max"/>
    <trip id="211" depart="140.67" from="-155875856#0" to="-278539536" departLane="best" departPos="random" departSpeed="max"/>
    <trip id="212" depart="141.33" from="-173941393#1" to="612501645#2" departLane="best" departPos="random" departSpeed="max"/>
    <trip id="213" depart="142.00" from="155875623#26" to="-155875685#10" departLane="best" departPos="random" departSpeed="max"/>
    <trip id="214" depart="142.67" from="-175561973#0" to="175584993#0" departLane="best" departPos="random" departSpeed="max"/>
    <trip id="215" depart="143.33" from="-557166336" to="175562886" departLane="best" departPos="random" departSpeed="max"/>
    <trip id="216" depart="144.00" from="155884554#0" to="68521369#3" departLane="best" departPos="random" departSpeed="max"/>
    <trip id="217" depart="144.67" from="155875797#0" to="557168424#1" departLane="best" departPos="random" departSpeed="max"/>
    <trip id="218" depart="145.33" from="183224577#0" to="155884393#0" departLane="best" departPos="random" departSpeed="max"/>
    <trip id="219" depart="146.00" from="175561211#0" to="155875644#3" departLane="best" departPos="random" departSpeed="max"/>
    <trip id="220" depart="146.67" from="175562966#2" to="155875726" departLane="best" departPos="random" departSpeed="max"/>
    <trip id="221" depart="147.33" from="183224592#2" to="175561998" departLane="best" departPos="random" departSpeed="max"/>
    <trip id="222" depart="148.00" from="-623710419" to="-175562059#3" departLane="best" departPos="random" departSpeed="max"/>
    <trip id="223" depart="148.67" from="-175561957" to="155884513#0" departLane="best" departPos="random" departSpeed="max"/>
    <trip id="224" depart="149.33" from="175562032#0" to="155875667#3" departLane="best" departPos="random" departSpeed="max"/>
    <trip id="225" depart="150.00" from="155884384#1" to="-175562299#1" departLane="best" departPos="random" departSpeed="max"/>
    <trip id="226" depart="150.67" from="-155875738#8" to="-175562471" departLane="best" departPos="random" departSpeed="max"/>
    <trip id="227" depart="151.33" from="-175562279" to="-175562966#0" departLane="best" departPos="random" departSpeed="max"/>
    <trip id="228" depart="152.00" from="155875667#0" to="-155884427#0" departLane="best" departPos="random" departSpeed="max"/>
    <trip id="229" depart="152.67" from="-175561508#11" to="175561007#1" departLane="best" departPos="random" departSpeed="max"/>
    <trip id="230" depart="153.33" from="175560823#6" to="-155875733#0" departLane="best" departPos="random" departSpeed="max"/>