<?xml version="1.0" encoding="UTF-8"?>

<!-- generated on 2025-08-18 14:19:43.941486 by randomTrips.py UNKNOWN
<configuration>
    <net-file value="osm.net.xml.gz"/>
    <output-trip-file value="trips_low.rou.xml"/>
    <trip-attributes value="departLane=&quot;best&quot; departSpeed=&quot;max&quot; departPos=&quot;random&quot;"/>
    <validate value="True"/>
    <period value="3.0"/>
</configuration>
-->

<routes xmlns:xsi="http://www.w3.org/2001/XMLSchema-instance" xsi:noNamespaceSchemaLocation="http://sumo.dlr.de/xsd/routes_file.xsd">
    <trip id="0" depart="0.00" from="155884413#6" to="-155875650#4" departLane="best" departSpeed="max" departPos="random"/>
    <trip id="1" depart="3.00" from="-175562299#1" to="-175561488#10" departLane="best" departSpeed="max" departPos="random"/>
    <trip id="2" depart="6.00" from="175561488#5" to="174274266#0" departLane="best" departSpeed="max" departPos="random"/>
    <trip id="3" depart="9.00" from="183224582#0" to="-155875790#10" departLane="best" departSpeed="max" departPos="random"/>
    <trip id="4" depart="12.00" from="-278539496" to="-155875658#2" departLane="best" departSpeed="max" departPos="random"/>
    <trip id="5" depart="15.00" from="-175561402#0" to="155875644#4" departLane="best" departSpeed="max" departPos="random"/>
    <trip id="6" depart="18.00" from="-155875650#5" to="-175560823#4" departLane="best" departSpeed="max" departPos="random"/>
    <trip id="7" depart="21.00" from="155884444" to="155875708" departLane="best" departSpeed="max" departPos="random"/>
    <trip id="8" depart="24.00" from="-175561442#0" to="155875850#2" departLane="best" departSpeed="max" departPos="random"/>
    <trip id="9" depart="27.00" from="175562758#13" to="-155875620#2" departLane="best" departSpeed="max" departPos="random"/>
    <trip id="10" depart="30.00" from="175562720#1" to="175561246" departLane="best" departSpeed="max" departPos="random"/>
    <trip id="11" depart="33.00" from="-175563102#5" to="-155884528#1" departLane="best" departSpeed="max" departPos="random"/>
    <trip id="12" depart="36.00" from="557168426#1" to="-175563102#15" departLane="best" departSpeed="max" departPos="random"/>
    <trip id="13" depart="39.00" from="-155875797#1" to="-155875802#1" departLane="best" departSpeed="max" departPos="random"/>
    <trip id="14" depart="42.00" from="175563102#2" to="155875883#4" departLane="best" departSpeed="max" departPos="random"/>
    <trip id="15" depart="45.00" from="175562758#0" to="175561841" departLane="best" departSpeed="max" departPos="random"/>
    <trip id="16" depart="48.00" from="155875659#0" to="630498041" departLane="best" departSpeed="max" departPos="random"/>
    <trip id="17" depart="51.00" from="-183224538" to="155875733#5" departLane="best" departSpeed="max" departPos="random"/>
    <trip id="18" depart="54.00" from="175562949#3" to="155884413#2" departLane="best" departSpeed="max" departPos="random"/>
    <trip id="19" depart="57.00" from="175584966" to="155875797#11" departLane="best" departSpeed="max" departPos="random"/>
    <trip id="20" depart="60.00" from="175560823#13" to="-155875675#2" departLane="best" departSpeed="max" departPos="random"/>
    <trip id="21" depart="63.00" from="-175561488#4" to="-175562604#0" departLane="best" departSpeed="max" departPos="random"/>
    <trip id="22" depart="66.00" from="-155875743#2" to="-175561508#4" departLane="best" departSpeed="max" departPos="random"/>
    <trip id="23" depart="69.00" from="-155875821" to="-175562308" departLane="best" departSpeed="max" departPos="random"/>
    <trip id="24" depart="72.00" from="155884412#0" to="-175585016" departLane="best" departSpeed="max" departPos="random"/>
    <trip id="25" depart="75.00" from="-175585037#1" to="-175561028" departLane="best" departSpeed="max" departPos="random"/>
    <trip id="26" depart="78.00" from="-175562216#0" to="496758030#0" departLane="best" departSpeed="max" departPos="random"/>
    <trip id="27" depart="81.00" from="155884438#1" to="155884384#2" departLane="best" departSpeed="max" departPos="random"/>
    <trip id="28" depart="84.00" from="-173941212#0" to="175561830#0" departLane="best" departSpeed="max" departPos="random"/>
    <trip id="29" depart="87.00" from="-155884554#0" to="-183224558" departLane="best" departSpeed="max" departPos="random"/>
    <trip id="30" depart="90.00" from="729271571#0" to="155884519#1" departLane="best" departSpeed="max" departPos="random"/>
    <trip id="31" depart="93.00" from="155875685#4" to="175560823#5" departLane="best" departSpeed="max" departPos="random"/>
    <trip id="32" depart="96.00" from="175563094#0" to="175562535" departLane="best" departSpeed="max" departPos="random"/>
    <trip id="33" depart="99.00" from="-175561488#7" to="-155875659#1" departLane="best" departSpeed="max" departPos="random"/>
    <trip id="34" depart="102.00" from="-175562911" to="-175562233#0" departLane="best" departSpeed="max" departPos="random"/>
    <trip id="35" depart="105.00" from="-175561183" to="557162422" departLane="best" departSpeed="max" departPos="random"/>
    <trip id="36" depart="108.00" from="175585026#0" to="-175562918#0" departLane="best" departSpeed="max" departPos="random"/>
    <trip id="37" depart="111.00" from="155884475" to="-239350182#1" departLane="best" departSpeed="max" departPos="random"/>
    <trip id="38" depart="114.00" from="278539444" to="-627053238#0" departLane="best" departSpeed="max" departPos="random"/>
    <trip id="39" depart="117.00" from="-175562182#0" to="-175561957" departLane="best" departSpeed="max" departPos="random"/>
    <trip id="40" depart="120.00" from="155875695#1" to="-175562144#1" departLane="best" departSpeed="max" departPos="random"/>
    <trip id="41" depart="123.00" from="155875747#1" to="278539459" departLane="best" departSpeed="max" departPos="random"/>
    <trip id="42" depart="126.00" from="-239350182#2" to="-175561402#1" departLane="best" departSpeed="max" departPos="random"/>
    <trip id="43" depart="129.00" from="992079381#1" to="155875650#3" departLane="best" departSpeed="max" departPos="random"/>
    <trip id="44" depart="132.00" from="-155875790#6" to="-155875675#5" departLane="best" departSpeed="max" departPos="random"/>
    <trip id="45" depart="135.00" from="-155875868#0" to="155884427#7" departLane="best" departSpeed="max" departPos="random"/>
    <trip id="46" depart="138.00" from="175562395#0" to="-278539529#2" departLane="best" departSpeed="max" departPos="random"/>
    <trip id="47" depart="141.00" from="-155875720" to="-183224582#0" departLane="best" departSpeed="max" departPos="random"/>
    <trip id="48" depart="144.00" from="746275618#4" to="155875673#1" departLane="best" departSpeed="max" departPos="random"/>
    <trip id="49" depart="147.00" from="627053238#0" to="175585039#2" departLane="best" departSpeed="max" departPos="random"/>
    <trip id="50" depart="150.00" from="-155875623#22" to="175561508#8" departLane="best" departSpeed="max" departPos="random"/>
    <trip id="51" depart="153.00" from="173941393#1" to="155875685#2" departLane="best" departSpeed="max" departPos="random"/>
    <trip id="52" depart="156.00" from="-175562202" to="155884528#1" departLane="best" departSpeed="max" departPos="random"/>
    <trip id="53" depart="159.00" from="-155875870#1" to="-376769519" departLane="best" departSpeed="max" departPos="random"/>
    <trip id="54" depart="162.00" from="-557162416" to="557168432" departLane="best" departSpeed="max" departPos="random"/>
    <trip id="55" depart="165.00" from="175585022" to="-175562158" departLane="best" departSpeed="max" departPos="random"/>
    <trip id="56" depart="168.00" from="-746275618#2" to="-173941602#1" departLane="best" departSpeed="max" departPos="random"/>
    <trip id="57" depart="171.00" from="278539430#1" to="183224564" departLane="best" departSpeed="max" departPos="random"/>
    <trip id="58" depart="174.00" from="-175562745#1" to="155884516#0" departLane="best" departSpeed="max" departPos="random"/>
    <trip id="59" depart="177.00" from="155875854#1" to="-155884515" departLane="best" departSpeed="max" departPos="random"/>
    <trip id="60" depart="180.00" from="175561981#1" to="155875685#9" departLane="best" departSpeed="max" departPos="random"/>
    <trip id="61" depart="183.00" from="175562239#1" to="155875675#1" departLane="best" departSpeed="max" departPos="random"/>
    <trip id="62" depart="186.00" from="-1348920376#1" to="-175563009" departLane="best" departSpeed="max" departPos="random"/>
    <trip id="63" depart="189.00" from="-155875639#2" to="278539551#1" departLane="best" departSpeed="max" departPos="random"/>
    <trip id="64" depart="192.00" from="175585037#0" to="175563125#1" departLane="best" departSpeed="max" departPos="random"/>
    <trip id="65" depart="195.00" from="-175562774#3" to="-155875704" departLane="best" departSpeed="max" departPos="random"/>
    <trip id="66" depart="198.00" from="175585034" to="557166346#7" departLane="best" departSpeed="max" departPos="random"/>
    <trip id="67" depart="201.00" from="-155875782#3" to="155875615#0" departLane="best" departSpeed="max" departPos="random"/>
    <trip id="68" depart="204.00" from="-155875735#1" to="175562286" departLane="best" departSpeed="max" departPos="random"/>
    <trip id="69" depart="207.00" from="175562032#0" to="-155884410#0" departLane="best" departSpeed="max" departPos="random"/>
    <trip id="70" depart="210.00" from="-623710421" to="155875730#4" departLane="best" departSpeed="max" departPos="random"/>
    <trip id="71" depart="213.00" from="-175562182#1" to="183224582#2" departLane="best" departSpeed="max" departPos="random"/>
    <trip id="72" depart="216.00" from="-278539501" to="-175561183" departLane="best" departSpeed="max" departPos="random"/>
    <trip id="73" depart="219.00" from="155875663#2" to="175561843#1" departLane="best" departSpeed="max" departPos="random"/>
    <trip id="74" depart="222.00" from="746275618#1" to="155884557#0" departLane="best" departSpeed="max" departPos="random"/>
    <trip id="75" depart="225.00" from="-278539547#1" to="155875659#2" departLane="best" departSpeed="max" departPos="random"/>
    <trip id="76" depart="228.00" from="-155884381#0" to="-175561488#14" departLane="best" departSpeed="max" departPos="random"/>
    <trip id="77" depart="231.00" from="-175563102#14" to="155875850#0" departLane="best" departSpeed="max" departPos="random"/>
    <trip id="78" depart="234.00" from="-175561508#0" to="-175561433" departLane="best" departSpeed="max" departPos="random"/>
    <trip id="79" depart="237.00" from="-155875735#6" to="155884448" departLane="best" departSpeed="max" departPos="random"/>
    <trip id="80" depart="240.00" from="-175561488#7" to="278539486" departLane="best" departSpeed="max" departPos="random"/>
    <trip id="81" depart="243.00" from="175584961#5" to="-155875736#1" departLane="best" departSpeed="max" departPos="random"/>
    <trip id="82" depart="246.00" from="-175561666" to="173941985#3" departLane="best" departSpeed="max" departPos="random"/>
    <trip id="83" depart="249.00" from="-175561364#0" to="-155884413#3" departLane="best" departSpeed="max" departPos="random"/>
    <trip id="84" depart="252.00" from="278539536" to="155875785#1" departLane="best" departSpeed="max" departPos="random"/>
    <trip id="85" depart="255.00" from="-623710417#3" to="175562718#1" departLane="best" departSpeed="max" departPos="random"/>
    <trip id="86" depart="258.00" from="175562758#1" to="-174032654#0" departLane="best" departSpeed="max" departPos="random"/>
    <trip id="87" depart="261.00" from="-155875797#8" to="-278539547#0" departLane="best" departSpeed="max" departPos="random"/>
    <trip id="88" depart="264.00" from="-278539502" to="-67152547#1" departLane="best" departSpeed="max" departPos="random"/>
    <trip id="89" depart="267.00" from="175561442#1" to="173942218#2" departLane="best" departSpeed="max" departPos="random"/>
    <trip id="90" depart="270.00" from="-239350183" to="-175563102#7" departLane="best" departSpeed="max" departPos="random"/>
    <trip id="91" depart="273.00" from="175584966" to="-175561973#0" departLane="best" departSpeed="max" departPos="random"/>
    <trip id="92" depart="276.00" from="-174032654#0" to="-612501639#0" departLane="best" departSpeed="max" departPos="random"/>
    <trip id="93" depart="279.00" from="-278539496" to="-175562322" departLane="best" departSpeed="max" departPos="random"/>
    <trip id="94" depart="282.00" from="-175561973#11" to="278539541#1" departLane="best" departSpeed="max" departPos="random"/>
    <trip id="95" depart="285.00" from="-278557254" to="175585039#3" departLane="best" departSpeed="max" departPos="random"/>
    <trip id="96" depart="288.00" from="155875675#1" to="-155875685#11" departLane="best" departSpeed="max" departPos="random"/>
    <trip id="97" depart="291.00" from="992079385#0" to="175584951" departLane="best" departSpeed="max" departPos="random"/>
    <trip id="98" depart="294.00" from="623710417#4" to="278539546#1" departLane="best" departSpeed="max" departPos="random"/>
    <trip id="99" depart="297.00" from="175563102#5" to="-170844796#3" departLane="best" departSpeed="max" departPos="random"/>
    <trip id="100" depart="300.00" from="-669041722#6" to="-175561297#2" departLane="best" departSpeed="max" departPos="random"/>
    <trip id="101" depart="303.00" from="-239350182#6" to="-155875706" departLane="best" departSpeed="max" departPos="random"/>
    <trip id="102" depart="306.00" from="-183224549" to="67792326" departLane="best" departSpeed="max" departPos="random"/>
    <trip id="103" depart="309.00" from="-175562182#1" to="175562718#0" departLane="best" departSpeed="max" departPos="random"/>
    <trip id="104" depart="312.00" from="-557162423" to="-278539531" departLane="best" departSpeed="max" departPos="random"/>
    <trip id="105" depart="315.00" from="557168426#1" to="746275618#1" departLane="best" departSpeed="max" departPos="random"/>
    <trip id="106" depart="318.00" from="155875685#12" to="175561508#2" departLane="best" departSpeed="max" departPos="random"/>
    <trip id="107" depart="321.00" from="-155884516#1" to="-175562733" departLane="best" departSpeed="max" departPos="random"/>
    <trip id="108" depart="324.00" from="623710417#3" to="155875797#3" departLane="best" departSpeed="max" departPos="random"/>
    <trip id="109" depart="327.00" from="155875667#7" to="175562088#0" departLane="best" departSpeed="max" departPos="random"/>
    <trip id="110" depart="330.00" from="-155875687#3" to="155875817#0" departLane="best" departSpeed="max" departPos="random"/>
    <trip id="111" depart="333.00" from="-992079382#1" to="175585007#1" departLane="best" departSpeed="max" departPos="random"/>
    <trip id="112" depart="336.00" from="-155884528#2" to="612501647#3" departLane="best" departSpeed="max" departPos="random"/>
    <trip id="113" depart="339.00" from="-155875743#3" to="-173942126#1" departLane="best" departSpeed="max" departPos="random"/>
    <trip id="114" depart="342.00" from="155875790#9" to="174032652#3" departLane="best" departSpeed="max" departPos="random"/>
    <trip id="115" depart="345.00" from="-175561529" to="-155884381#6" departLane="best" departSpeed="max" departPos="random"/>
    <trip id="116" depart="348.00" from="183224562" to="-175561942" departLane="best" departSpeed="max" departPos="random"/>
    <trip id="117" depart="351.00" from="155875790#8" to="155884413#4" departLane="best" departSpeed="max" departPos="random"/>
    <trip id="118" depart="354.00" from="-278539488#0" to="155875816" departLane="best" departSpeed="max" departPos="random"/>
    <trip id="119" depart="357.00" from="155875639#0" to="408840879#1" departLane="best" departSpeed="max" departPos="random"/>
    <trip id="120" depart="360.00" from="-175560877#0" to="175561502" departLane="best" departSpeed="max" departPos="random"/>
    <trip id="121" depart="363.00" from="-175561753#0" to="-239350182#10" departLane="best" departSpeed="max" departPos="random"/>
    <trip id="122" depart="366.00" from="170844796#12" to="-175562758#2" departLane="best" departSpeed="max" departPos="random"/>
    <trip id="123" depart="369.00" from="-175562918#1" to="175562170" departLane="best" departSpeed="max" departPos="random"/>
    <trip id="124" depart="372.00" from="-155875736#1" to="-623710421" departLane="best" departSpeed="max" departPos="random"/>
    <trip id="125" depart="375.00" from="992079383" to="746275618#3" departLane="best" departSpeed="max" departPos="random"/>
    <trip id="126" depart="378.00" from="-155875738#1" to="-175561297#1" departLane="best" departSpeed="max" departPos="random"/>
    <trip id="127" depart="381.00" from="-175562182#1" to="376769519" departLane="best" departSpeed="max" departPos="random"/>
    <trip id="128" depart="384.00" from="175585039#2" to="183224606#2" departLane="best" departSpeed="max" departPos="random"/>
    <trip id="129" depart="387.00" from="-175585034" to="-155884539#0" departLane="best" departSpeed="max" departPos="random"/>
    <trip id="130" depart="390.00" from="175563001#3" to="175561396" departLane="best" departSpeed="max" departPos="random"/>
    <trip id="131" depart="393.00" from="155875858#2" to="68521369#1" departLane="best" departSpeed="max" departPos="random"/>
    <trip id="132" depart="396.00" from="155884466" to="-155875623#12" departLane="best" departSpeed="max" departPos="random"/>
    <trip id="133" depart="399.00" from="175562786#0" to="-175562758#13" departLane="best" departSpeed="max" departPos="random"/>
    <trip id="134" depart="402.00" from="155884531#3" to="557160760" departLane="best" departSpeed="max" departPos="random"/>
    <trip id="135" depart="405.00" from="-155884413#3" to="-155875883#3" departLane="best" departSpeed="max" departPos="random"/>
    <trip id="136" depart="408.00" from="-155875856#1" to="155875735#2" departLane="best" departSpeed="max" departPos="random"/>
    <trip id="137" depart="411.00" from="-175562281" to="155875890#0" departLane="best" departSpeed="max" departPos="random"/>
    <trip id="138" depart="414.00" from="175561132" to="-175560846#1" departLane="best" departSpeed="max" departPos="random"/>
    <trip id="139" depart="417.00" from="155884408" to="-175562170" departLane="best" departSpeed="max" departPos="random"/>
    <trip id="140" depart="420.00" from="-67152547#1" to="278539486" departLane="best" departSpeed="max" departPos="random"/>
    <trip id="141" depart="423.00" from="175563102#14" to="-155875797#14" departLane="best" departSpeed="max" departPos="random"/>
    <trip id="142" depart="426.00" from="-278539502" to="-175562299#7" departLane="best" departSpeed="max" departPos="random"/>
    <trip id="143" depart="429.00" from="-155875615#4" to="175562395#1" departLane="best" departSpeed="max" departPos="random"/>
    <trip id="144" depart="432.00" from="155884412#4" to="-175562138" departLane="best" departSpeed="max" departPos="random"/>
    <trip id="145" depart="435.00" from="175561508#5" to="155875733#4" departLane="best" departSpeed="max" departPos="random"/>
    <trip id="146" depart="438.00" from="-278539527#1" to="-155875623#18" departLane="best" departSpeed="max" departPos="random"/>
    <trip id="147" depart="441.00" from="-155875738#3" to="220005384#1" departLane="best" departSpeed="max" departPos="random"/>
    <trip id="148" depart="444.00" from="220005385#0" to="155875710" departLane="best" departSpeed="max" departPos="random"/>
    <trip id="149" depart="447.00" from="175563009" to="155875802#1" departLane="best" departSpeed="max" departPos="random"/>
    <trip id="150" depart="450.00" from="-155884459#1" to="-155884402" departLane="best" departSpeed="max" departPos="random"/>
    <trip id="151" depart="453.00" from="-175562776#0" to="278539463" departLane="best" departSpeed="max" departPos="random"/>
    <trip id="152" depart="456.00" from="175562505" to="175585039#2" departLane="best" departSpeed="max" departPos="random"/>
    <trip id="153" depart="459.00" from="183224606#1" to="-175561080#0" departLane="best" departSpeed="max" departPos="random"/>
    <trip id="154" depart="462.00" from="-175561973#1" to="-155875854#0" departLane="best" departSpeed="max" departPos="random"/>
    <trip id="155" depart="465.00" from="175562262" to="220005385#1" departLane="best" departSpeed="max" departPos="random"/>
    <trip id="156" depart="468.00" from="-278539444" to="155884413#7" departLane="best" departSpeed="max" departPos="random"/>
    <trip id="157" depart="471.00" from="-155884516#0" to="278539554" departLane="best" departSpeed="max" departPos="random"/>
    <trip id="158" depart="474.00" from="175584980#0" to="669041722#5" departLane="best" departSpeed="max" departPos="random"/>
    <trip id="159" depart="477.00" from="175562758#5" to="197805110#5" departLane="best" departSpeed="max" departPos="random"/>
    <trip id="160" depart="480.00" from="-155875650#0" to="175561968#3" departLane="best" departSpeed="max" departPos="random"/>
    <trip id="161" depart="483.00" from="-175563076#2" to="278557252" departLane="best" departSpeed="max" departPos="random"/>
    <trip id="162" depart="486.00" from="175562678#0" to="175585043#2" departLane="best" departSpeed="max" departPos="random"/>
    <trip id="163" depart="489.00" from="175562758#5" to="-175562216#0" departLane="best" departSpeed="max" departPos="random"/>
    <trip id="164" depart="492.00" from="175562302#1" to="-155875868#3" departLane="best" departSpeed="max" departPos="random"/>
    <trip id="165" depart="495.00" from="175585007#1" to="175585037#0" departLane="best" departSpeed="max" departPos="random"/>
    <trip id="166" depart="498.00" from="-175561488#1" to="175563040#2" departLane="best" departSpeed="max" departPos="random"/>
    <trip id="167" depart="501.00" from="-557166346#9" to="-175562774#1" departLane="best" departSpeed="max" departPos="random"/>
    <trip id="168" depart="504.00" from="175562471" to="-175561488#3" departLane="best" departSpeed="max" departPos="random"/>
    <trip id="169" depart="507.00" from="-155875646#5" to="-175560805#3" departLane="best" departSpeed="max" departPos="random"/>
    <trip id="170" depart="510.00" from="-175563040#2" to="175585043#3" departLane="best" departSpeed="max" departPos="random"/>
    <trip id="171" depart="513.00" from="612501647#3" to="-175562323#0" departLane="best" departSpeed="max" departPos="random"/>
    <trip id="172" depart="516.00" from="155884419#1" to="-239350182#7" departLane="best" departSpeed="max" departPos="random"/>
    <trip id="173" depart="519.00" from="67792311#0" to="155875685#11" departLane="best" departSpeed="max" departPos="random"/>
    <trip id="174" depart="522.00" from="278539545#1" to="-155875883#2" departLane="best" departSpeed="max" departPos="random"/>
    <trip id="175" depart="525.00" from="623710418#1" to="-173941602#1" departLane="best" departSpeed="max" departPos="random"/>
    <trip id="176" depart="528.00" from="612501643#1" to="-175562188#1" departLane="best" departSpeed="max" departPos="random"/>
    <trip id="177" depart="531.00" from="-155875858#0" to="-278557254" departLane="best" departSpeed="max" departPos="random"/>
    <trip id="178" depart="534.00" from="175561442#0" to="-175562904#3" departLane="best" departSpeed="max" departPos="random"/>
    <trip id="179" depart="537.00" from="155875845#0" to="155875653#2" departLane="best" departSpeed="max" departPos="random"/>
    <trip id="180" depart="540.00" from="-183224584#2" to="155875797#1" departLane="best" departSpeed="max" departPos="random"/>
    <trip id="181" depart="543.00" from="-175561981#3" to="175561488#1" departLane="best" departSpeed="max" departPos="random"/>
    <trip id="182" depart="546.00" from="-1348920377#2" to="278539545#3" departLane="best" departSpeed="max" departPos="random"/>
    <trip id="183" depart="549.00" from="155875663#0" to="175561508#5" departLane="best" departSpeed="max" departPos="random"/>
    <trip id="184" depart="552.00" from="175561508#7" to="173942053#0" departLane="best" departSpeed="max" departPos="random"/>
    <trip id="185" depart="555.00" from="-175585008#0" to="-155875735#9" departLane="best" departSpeed="max" departPos="random"/>
    <trip id="186" depart="558.00" from="155884539#1" to="-175563076#2" departLane="best" departSpeed="max" departPos="random"/>
    <trip id="187" depart="561.00" from="-175562904#0" to="175584987" departLane="best" departSpeed="max" departPos="random"/>
    <trip id="188" depart="564.00" from="175561227" to="-175562758#3" departLane="best" departSpeed="max" departPos="random"/>
    <trip id="189" depart="567.00" from="-239350183" to="-175562720#0" departLane="best" departSpeed="max" departPos="random"/>
    <trip id="190" depart="570.00" from="-155884390#0" to="-278539522" departLane="best" departSpeed="max" departPos="random"/>
    <trip id="191" depart="573.00" from="278539546#0" to="175560805#0" departLane="best" departSpeed="max" departPos="random"/>
    <trip id="192" depart="576.00" from="220005384#0" to="155884410#1" departLane="best" departSpeed="max" departPos="random"/>
    <trip id="193" depart="579.00" from="-175562758#13" to="155875726" departLane="best" departSpeed="max" departPos="random"/>
    <trip id="194" depart="582.00" from="-1348920376#1" to="-175562530" departLane="best" departSpeed="max" departPos="random"/>
    <trip id="195" depart="585.00" from="-278539530" to="155875797#6" departLane="best" departSpeed="max" departPos="random"/>
    <trip id="196" depart="588.00" from="155884471" to="-669041722#7" departLane="best" departSpeed="max" departPos="random"/>
    <trip id="197" depart="591.00" from="-278557252" to="-175561297#2" departLane="best" departSpeed="max" departPos="random"/>
    <trip id="198" depart="594.00" from="-623710417#4" to="278539471" departLane="best" departSpeed="max" departPos="random"/>
    <trip id="199" depart="597.00" from="175562495" to="-173941212#2" departLane="best" departSpeed="max" departPos="random"/>
    <trip id="200" depart="600.00" from="-155875782#0" to="155875658#5" departLane="best" departSpeed="max" departPos="random"/>
    <trip id="201" depart="603.00" from="155884400" to="-175563102#12" departLane="best" departSpeed="max" departPos="random"/>
    <trip id="202" depart="606.00" from="175562801#1" to="175562148#1" departLane="best" departSpeed="max" departPos="random"/>
    <trip id="203" depart="609.00" from="170844796#2" to="-175561488#14" departLane="best" departSpeed="max" departPos="random"/>
    <trip id="204" depart="612.00" from="-175560823#5" to="-155875650#3" departLane="best" departSpeed="max" departPos="random"/>
    <trip id="205" depart="615.00" from="175563102#8" to="-155875738#12" departLane="best" departSpeed="max" departPos="random"/>
    <trip id="206" depart="618.00" from="-278539477#0" to="155884440#1" departLane="best" departSpeed="max" departPos="random"/>
    <trip id="207" depart="621.00" from="-175560819#3" to="175561151" departLane="best" departSpeed="max" departPos="random"/>
    <trip id="208" depart="624.00" from="-720738693" to="-175561858#0" departLane="best" departSpeed="max" departPos="random"/>
    <trip id="209" depart="627.00" from="155884497#0" to="-155875620#0" departLane="best" departSpeed="max" departPos="random"/>
    <trip id="210" depart="630.00" from="175561830#1" to="175562377" departLane="best" departSpeed="max" departPos="random"/>
    <trip id="211" depart="633.00" from="-155875856#0" to="-278539536" departLane="best" departSpeed="max" departPos="random"/>
    <trip id="212" depart="636.00" from="-173941393#1" to="612501645#2" departLane="best" departSpeed="max" departPos="random"/>
    <trip id="213" depart="639.00" from="155875623#26" to="-155875685#10" departLane="best" departSpeed="max" departPos="random"/>
    <trip id="214" depart="642.00" from="-175561973#0" to="175584993#0" departLane="best" departSpeed="max" departPos="random"/>
    <trip id="215" depart="645.00" from="-557166336" to="175562886" departLane="best" departSpeed="max" departPos="random"/>
    <trip id="216" depart="648.00" from="155884554#0" to="68521369#3" departLane="best" departSpeed="max" departPos="random"/>
    <trip id="217" depart="651.00" from="155875797#0" to="557168424#1" departLane="best" departSpeed="max" departPos="random"/>
    <trip id="218" depart="654.00" from="183224577#0" to="155884393#0" departLane="best" departSpeed="max" departPos="random"/>
    <trip id="219" depart="657.00" from="175561211#0" to="155875644#3" departLane="best" departSpeed="max" departPos="random"/>
    <trip id="220" depart="660.00" from="175562966#2" to="155875726" departLane="best" departSpeed="max" departPos="random"/>
    <trip id="221" depart="663.00" from="183224592#2" to="175561998" departLane="best" departSpeed="max" departPos="random"/>
    <trip id="222" depart="666.00" from="-623710419" to="-175562059#3" departLane="best" departSpeed="max" departPos="random"/>
    <trip id="223" depart="669.00" from="-175561957" to="155884513#0" departLane="best" departSpeed="max" departPos="random"/>
    <trip id="224" depart="672.00" from="175562032#0" to="155875667#3" departLane="best" departSpeed="max" departPos="random"/>
    <trip id="225" depart="675.00" from="155884384#1" to="-175562299#1" departLane="best" departSpeed="max" departPos="random"/>
    <trip id="226" depart="678.00" from="-155875738#8" to="-175562471" departLane="best" departSpeed="max" departPos="random"/>
    <trip id="227" depart="681.00" from="-175562279" to="-175562966#0" departLane="best" departSpeed="max" departPos="random"/>
    <trip id="228" depart="684.00" from="155875667#0" to="-155884427#0" departLane="best" departSpeed="max" departPos="random"/>
    <trip id="229" depart="687.00" from="-175561508#11" to="175561007#1" departLane="best" departSpeed="max" departPos="random"/>
    <trip id="230" depart="690.00" from="175560823#6" to="-155875733#0" departLane="best" departSpeed="max" departPos="random"/>