<?xml version="1.0" encoding="UTF-8"?>

<!-- generated on 2025-08-18 14:19:25.974378 by randomTrips.py UNKNOWN
<configuration>
    <net-file value="osm.net.xml.gz"/>
    <output-trip-file value="trips_low.rou.xml"/>
    <trip-attributes value="departLane=&quot;best&quot; departSpeed=&quot;max&quot; departPos=&quot;random&quot;"/>
    <validate value="True"/>
    <period value="3.0"/>
</configuration>
-->

<routes xmlns:xsi="http://www.w3.org/2001/XMLSchema-instance" xsi:noNamespaceSchemaLocation="http://sumo.dlr.de/xsd/routes_file.xsd">
    <trip id="0" depart="0.00" from="34122270" to="218215385" departLane="best" departSpeed="max" departPos="random"/>
    <trip id="1" depart="3.00" from="627983196" to="624964395" departLane="best" departSpeed="max" departPos="random"/>
    <trip id="2" depart="6.00" from="476165175" to="-623977121" departLane="best" departSpeed="max" departPos="random"/>
    <trip id="3" depart="9.00" from="623698864" to="539309567" departLane="best" departSpeed="max" departPos="random"/>
    <trip id="4" depart="12.00" from="218215304#0" to="582412276" departLane="best" departSpeed="max" departPos="random"/>
    <trip id="5" depart="15.00" from="646819628" to="-173243146#0" departLane="best" departSpeed="max" departPos="random"/>
    <trip id="6" depart="18.00" from="646802067" to="627330445" departLane="best" departSpeed="max" departPos="random"/>
    <trip id="7" depart="21.00" from="445716748" to="1336780885#1" departLane="best" departSpeed="max" departPos="random"/>
    <trip id="8" depart="24.00" from="760461814" to="445716738" departLane="best" departSpeed="max" departPos="random"/>
    <trip id="9" depart="27.00" from="1006533337#6-AddedOnRampEdge" to="1039825493" departLane="best" departSpeed="max" departPos="random"/>
    <trip id="10" depart="30.00" from="655172009#2" to="617971383" departLane="best" departSpeed="max" departPos="random"/>
    <trip id="11" depart="33.00" from="646804131" to="627954973#1" departLane="best" departSpeed="max" departPos="random"/>
    <trip id="12" depart="36.00" from="537979490" to="788081972#2" departLane="best" departSpeed="max" departPos="random"/>
    <trip id="13" depart="39.00" from="652142870" to="620514212" departLane="best" departSpeed="max" departPos="random"/>
    <trip id="14" depart="42.00" from="670135361" to="582392188" departLane="best" departSpeed="max" departPos="random"/>
    <trip id="15" depart="45.00" from="627676747" to="-640301637" departLane="best" departSpeed="max" departPos="random"/>
    <trip id="16" depart="48.00" from="218215394" to="36499245" departLane="best" departSpeed="max" departPos="random"/>
    <trip id="17" depart="51.00" from="1043801533#2" to="34941298" departLane="best" departSpeed="max" departPos="random"/>
    <trip id="18" depart="54.00" from="620557606" to="450926025#0" departLane="best" departSpeed="max" departPos="random"/>
    <trip id="19" depart="57.00" from="450938289#5" to="175959380" departLane="best" departSpeed="max" departPos="random"/>
    <trip id="20" depart="60.00" from="32790133" to="74957629" departLane="best" departSpeed="max" departPos="random"/>
    <trip id="21" depart="63.00" from="623683974" to="620219322" departLane="best" departSpeed="max" departPos="random"/>
    <trip id="22" depart="66.00" from="1340576211" to="464793749" departLane="best" departSpeed="max" departPos="random"/>
    <trip id="23" depart="69.00" from="824132298" to="620745574" departLane="best" departSpeed="max" departPos="random"/>
    <trip id="24" depart="72.00" from="545321526" to="626803620" departLane="best" departSpeed="max" departPos="random"/>
    <trip id="25" depart="75.00" from="655138269" to="640010710" departLane="best" departSpeed="max" departPos="random"/>
    <trip id="26" depart="78.00" from="218215400" to="-626600768" departLane="best" departSpeed="max" departPos="random"/>
    <trip id="27" depart="81.00" from="397579050" to="33176090" departLane="best" departSpeed="max" departPos="random"/>
    <trip id="28" depart="84.00" from="175959378" to="75138964" departLane="best" departSpeed="max" departPos="random"/>
    <trip id="29" depart="87.00" from="701654605" to="397579051#2" departLane="best" departSpeed="max" departPos="random"/>
    <trip id="30" depart="90.00" from="623722940" to="475360855" departLane="best" departSpeed="max" departPos="random"/>
    <trip id="31" depart="93.00" from="736677851" to="479325839#0" departLane="best" departSpeed="max" departPos="random"/>
    <trip id="32" depart="96.00" from="32776945" to="302094718" departLane="best" departSpeed="max" departPos="random"/>
    <trip id="33" depart="99.00" from="546384217" to="32776866" departLane="best" departSpeed="max" departPos="random"/>
    <trip id="34" depart="102.00" from="582412258" to="715626227#1" departLane="best" departSpeed="max" departPos="random"/>
    <trip id="35" depart="105.00" from="476138604#0" to="218215370" departLane="best" departSpeed="max" departPos="random"/>
    <trip id="36" depart="108.00" from="847953070" to="533821482" departLane="best" departSpeed="max" departPos="random"/>
    <trip id="37" depart="111.00" from="1006533337#0-AddedOffRampEdge" to="-644627265#0" departLane="best" departSpeed="max" departPos="random"/>
    <trip id="38" depart="114.00" from="1098348950#1" to="620524556" departLane="best" departSpeed="max" departPos="random"/>
    <trip id="39" depart="117.00" from="646154599" to="476166950" departLane="best" departSpeed="max" departPos="random"/>
    <trip id="40" depart="120.00" from="-646804131" to="464793756" departLane="best" departSpeed="max" departPos="random"/>
    <trip id="41" depart="123.00" from="829059383" to="536039235" departLane="best" departSpeed="max" departPos="random"/>
    <trip id="42" depart="126.00" from="785346522#0" to="665471136#1" departLane="best" departSpeed="max" departPos="random"/>
    <trip id="43" depart="129.00" from="1098353820#0" to="476440467" departLane="best" departSpeed="max" departPos="random"/>
    <trip id="44" depart="132.00" from="478312418#0" to="758653634#0" departLane="best" departSpeed="max" departPos="random"/>
    <trip id="45" depart="135.00" from="701651543#0" to="32776945" departLane="best" departSpeed="max" departPos="random"/>
    <trip id="46" depart="138.00" from="512918152" to="163139027" departLane="best" departSpeed="max" departPos="random"/>
    <trip id="47" depart="141.00" from="383281862#3" to="620594227#2" departLane="best" departSpeed="max" departPos="random"/>
    <trip id="48" depart="144.00" from="620219322" to="1328117805#0" departLane="best" departSpeed="max" departPos="random"/>
    <trip id="49" depart="147.00" from="635639076" to="539267637" departLane="best" departSpeed="max" departPos="random"/>
    <trip id="50" depart="150.00" from="641080748#1" to="536420696#1" departLane="best" departSpeed="max" departPos="random"/>
    <trip id="51" depart="153.00" from="-1009039138" to="445716656#0" departLane="best" departSpeed="max" departPos="random"/>
    <trip id="52" depart="156.00" from="-450938289#5" to="74477408#2" departLane="best" departSpeed="max" departPos="random"/>
    <trip id="53" depart="159.00" from="703357367#1" to="652142870" departLane="best" departSpeed="max" departPos="random"/>
    <trip id="54" depart="162.00" from="391007746" to="-646693306" departLane="best" departSpeed="max" departPos="random"/>
    <trip id="55" depart="165.00" from="703357362" to="751787525" departLane="best" departSpeed="max" departPos="random"/>
    <trip id="56" depart="168.00" from="-791210567" to="512918076" departLane="best" departSpeed="max" departPos="random"/>
    <trip id="57" depart="171.00" from="635681690" to="1226459852#0" departLane="best" departSpeed="max" departPos="random"/>
    <trip id="58" depart="174.00" from="479742358" to="539427641" departLane="best" departSpeed="max" departPos="random"/>
    <trip id="59" depart="177.00" from="32776985" to="692247182" departLane="best" departSpeed="max" departPos="random"/>
    <trip id="60" depart="180.00" from="476166950" to="185279269#0" departLane="best" departSpeed="max" departPos="random"/>
    <trip id="61" depart="183.00" from="539261599" to="627954973#1" departLane="best" departSpeed="max" departPos="random"/>
    <trip id="62" depart="186.00" from="174886213" to="397464764#1" departLane="best" departSpeed="max" departPos="random"/>
    <trip id="63" depart="189.00" from="826790602" to="623698863" departLane="best" departSpeed="max" departPos="random"/>
    <trip id="64" depart="192.00" from="476689617" to="534637123#0" departLane="best" departSpeed="max" departPos="random"/>
    <trip id="65" depart="195.00" from="1159349481#0" to="218215390" departLane="best" departSpeed="max" departPos="random"/>
    <trip id="66" depart="198.00" from="445716737" to="582412273#0" departLane="best" departSpeed="max" departPos="random"/>
    <trip id="67" depart="201.00" from="218215409" to="218215374" departLane="best" departSpeed="max" departPos="random"/>
    <trip id="68" depart="204.00" from="-670345935" to="620532294" departLane="best" departSpeed="max" departPos="random"/>
    <trip id="69" depart="207.00" from="218215400" to="718229611" departLane="best" departSpeed="max" departPos="random"/>
    <trip id="70" depart="210.00" from="665482689" to="-675932729" departLane="best" departSpeed="max" departPos="random"/>
    <trip id="71" depart="213.00" from="231414427" to="624318907" departLane="best" departSpeed="max" departPos="random"/>
    <trip id="72" depart="216.00" from="185279269#1" to="1238157022#1" departLane="best" departSpeed="max" departPos="random"/>
    <trip id="73" depart="219.00" from="74953829#0" to="582303300#1" departLane="best" departSpeed="max" departPos="random"/>
    <trip id="74" depart="222.00" from="646804132" to="174281625" departLane="best" departSpeed="max" departPos="random"/>
    <trip id="75" depart="225.00" from="1035567246" to="476395133" departLane="best" departSpeed="max" departPos="random"/>
    <trip id="76" depart="228.00" from="476166951" to="479339460" departLane="best" departSpeed="max" departPos="random"/>
    <trip id="77" depart="231.00" from="627954127" to="624655284#0" departLane="best" departSpeed="max" departPos="random"/>
    <trip id="78" depart="234.00" from="816827037" to="1039826513" departLane="best" departSpeed="max" departPos="random"/>
    <trip id="79" depart="237.00" from="476139922" to="445716752" departLane="best" departSpeed="max" departPos="random"/>
    <trip id="80" depart="240.00" from="669875362" to="305950849" departLane="best" departSpeed="max" departPos="random"/>
    <trip id="81" depart="243.00" from="173963235#0" to="478299268#0" departLane="best" departSpeed="max" departPos="random"/>
    <trip id="82" depart="246.00" from="476165175" to="34941305" departLane="best" departSpeed="max" departPos="random"/>
    <trip id="83" depart="249.00" from="305950849" to="743216845" departLane="best" departSpeed="max" departPos="random"/>
    <trip id="84" depart="252.00" from="476705427" to="665471138#2" departLane="best" departSpeed="max" departPos="random"/>
    <trip id="85" depart="255.00" from="539427641" to="-646138487#0" departLane="best" departSpeed="max" departPos="random"/>
    <trip id="86" depart="258.00" from="947210815#1" to="652352810" departLane="best" departSpeed="max" departPos="random"/>
    <trip id="87" depart="261.00" from="782971921#1" to="743463795" departLane="best" departSpeed="max" departPos="random"/>
    <trip id="88" depart="264.00" from="655184948#1" to="1340576221#2" departLane="best" departSpeed="max" departPos="random"/>
    <trip id="89" depart="267.00" from="512918073" to="197540846#0" departLane="best" departSpeed="max" departPos="random"/>
    <trip id="90" depart="270.00" from="476138608#1" to="-646721040" departLane="best" departSpeed="max" departPos="random"/>
    <trip id="91" depart="273.00" from="464772323" to="822091336#0" departLane="best" departSpeed="max" departPos="random"/>
    <trip id="92" depart="276.00" from="32776985" to="644432258" departLane="best" departSpeed="max" departPos="random"/>
    <trip id="93" depart="279.00" from="479309336" to="476166954" departLane="best" departSpeed="max" departPos="random"/>
    <trip id="94" depart="282.00" from="760461814" to="828670751" departLane="best" departSpeed="max" departPos="random"/>
    <trip id="95" depart="285.00" from="545321522" to="627921866" departLane="best" departSpeed="max" departPos="random"/>
    <trip id="96" depart="288.00" from="1328117805#0" to="383281862#2" departLane="best" departSpeed="max" departPos="random"/>
    <trip id="97" depart="291.00" from="782971921#0" to="582392194#0" departLane="best" departSpeed="max" departPos="random"/>
    <trip id="98" depart="294.00" from="-646210496" to="582412259" departLane="best" departSpeed="max" departPos="random"/>
    <trip id="99" depart="297.00" from="512918159" to="655621384" departLane="best" departSpeed="max" departPos="random"/>
    <trip id="100" depart="300.00" from="1336780885#0" to="774906812" departLane="best" departSpeed="max" departPos="random"/>
    <trip id="101" depart="303.00" from="582412292" to="624953413" departLane="best" departSpeed="max" departPos="random"/>
    <trip id="102" depart="306.00" from="22653233#0" to="1159349483" departLane="best" departSpeed="max" departPos="random"/>
    <trip id="103" depart="309.00" from="582412291#0" to="620514215" departLane="best" departSpeed="max" departPos="random"/>
    <trip id="104" depart="312.00" from="476162273" to="582412257" departLane="best" departSpeed="max" departPos="random"/>
    <trip id="105" depart="315.00" from="535773824" to="748550932#0" departLane="best" departSpeed="max" departPos="random"/>
    <trip id="106" depart="318.00" from="263926705" to="475921344" departLane="best" departSpeed="max" departPos="random"/>
    <trip id="107" depart="321.00" from="624350266" to="383281883" departLane="best" departSpeed="max" departPos="random"/>
    <trip id="108" depart="324.00" from="-677004516" to="479324767" departLane="best" departSpeed="max" departPos="random"/>
    <trip id="109" depart="327.00" from="947210814#2-AddedOffRampEdge" to="829068637#0" departLane="best" departSpeed="max" departPos="random"/>
    <trip id="110" depart="330.00" from="-680834429" to="190451327" departLane="best" departSpeed="max" departPos="random"/>
    <trip id="111" depart="333.00" from="32776985" to="74668485" departLane="best" departSpeed="max" departPos="random"/>
    <trip id="112" depart="336.00" from="704807977#0" to="703353366" departLane="best" departSpeed="max" departPos="random"/>
    <trip id="113" depart="339.00" from="450938289#2" to="1336780888#1" departLane="best" departSpeed="max" departPos="random"/>
    <trip id="114" depart="342.00" from="652354791" to="627666628" departLane="best" departSpeed="max" departPos="random"/>
    <trip id="115" depart="345.00" from="620236890" to="823706107" departLane="best" departSpeed="max" departPos="random"/>
    <trip id="116" depart="348.00" from="623715811#0" to="-22653004" departLane="best" departSpeed="max" departPos="random"/>
    <trip id="117" depart="351.00" from="624294478" to="74963941#1" departLane="best" departSpeed="max" departPos="random"/>
    <trip id="118" depart="354.00" from="1238157022#3-AddedOffRampEdge" to="1124778509#3" departLane="best" departSpeed="max" departPos="random"/>
    <trip id="119" depart="357.00" from="33263143#1" to="617971429" departLane="best" departSpeed="max" departPos="random"/>
    <trip id="120" depart="360.00" from="627920190" to="175015686" departLane="best" departSpeed="max" departPos="random"/>
    <trip id="121" depart="363.00" from="620546645" to="32788304" departLane="best" departSpeed="max" departPos="random"/>
    <trip id="122" depart="366.00" from="512918086" to="718229611" departLane="best" departSpeed="max" departPos="random"/>
    <trip id="123" depart="369.00" from="655154945" to="1009039136#1" departLane="best" departSpeed="max" departPos="random"/>
    <trip id="124" depart="372.00" from="-1336780893" to="636849866" departLane="best" departSpeed="max" departPos="random"/>
    <trip id="125" depart="375.00" from="620594226#0" to="32776854" departLane="best" departSpeed="max" departPos="random"/>
    <trip id="126" depart="378.00" from="476389382" to="-32759866" departLane="best" departSpeed="max" departPos="random"/>
    <trip id="127" depart="381.00" from="718229612" to="539309569#0" departLane="best" departSpeed="max" departPos="random"/>
    <trip id="128" depart="384.00" from="652357031" to="582412254" departLane="best" departSpeed="max" departPos="random"/>
    <trip id="129" depart="387.00" from="1328117791#0" to="1226459849#0" departLane="best" departSpeed="max" departPos="random"/>
    <trip id="130" depart="390.00" from="397426415" to="715645007" departLane="best" departSpeed="max" departPos="random"/>
    <trip id="131" depart="393.00" from="646205873" to="665471135" departLane="best" departSpeed="max" departPos="random"/>
    <trip id="132" depart="396.00" from="717057839" to="175959440" departLane="best" departSpeed="max" departPos="random"/>
    <trip id="133" depart="399.00" from="305950849" to="1074709531" departLane="best" departSpeed="max" departPos="random"/>
    <trip id="134" depart="402.00" from="641153320" to="704840580" departLane="best" departSpeed="max" departPos="random"/>
    <trip id="135" depart="405.00" from="476145609" to="620514574" departLane="best" departSpeed="max" departPos="random"/>
    <trip id="136" depart="408.00" from="1328117804#0" to="74549037#1" departLane="best" departSpeed="max" departPos="random"/>
    <trip id="137" depart="411.00" from="646845858" to="703358938" departLane="best" departSpeed="max" departPos="random"/>
    <trip id="138" depart="414.00" from="445716683" to="74549046#0" departLane="best" departSpeed="max" departPos="random"/>
    <trip id="139" depart="417.00" from="645287549#1" to="1098348950#0" departLane="best" departSpeed="max" departPos="random"/>
    <trip id="140" depart="420.00" from="698073252" to="657503074" departLane="best" departSpeed="max" departPos="random"/>
    <trip id="141" depart="423.00" from="218215375" to="649101838" departLane="best" departSpeed="max" departPos="random"/>
    <trip id="142" depart="426.00" from="479325840#0" to="391007733#0" departLane="best" departSpeed="max" departPos="random"/>
    <trip id="143" depart="429.00" from="646205393#2-AddedOnRampEdge" to="218215404" departLane="best" departSpeed="max" departPos="random"/>
    <trip id="144" depart="432.00" from="-479325848#1" to="174886158#2" departLane="best" departSpeed="max" departPos="random"/>
    <trip id="145" depart="435.00" from="445716664#0" to="669875362" departLane="best" departSpeed="max" departPos="random"/>
    <trip id="146" depart="438.00" from="780092336" to="349413652" departLane="best" departSpeed="max" departPos="random"/>
    <trip id="147" depart="441.00" from="621227590#2" to="476138608#1" departLane="best" departSpeed="max" departPos="random"/>
    <trip id="148" depart="444.00" from="74963947#2" to="1124778509#3" departLane="best" departSpeed="max" departPos="random"/>
    <trip id="149" depart="447.00" from="784712576#1" to="163139027" departLane="best" departSpeed="max" departPos="random"/>
    <trip id="150" depart="450.00" from="775888832#0" to="32790032#2" departLane="best" departSpeed="max" departPos="random"/>
    <trip id="151" depart="453.00" from="1098348947#0" to="476440464#0" departLane="best" departSpeed="max" departPos="random"/>
    <trip id="152" depart="456.00" from="627949755" to="397579050" departLane="best" departSpeed="max" departPos="random"/>
    <trip id="153" depart="459.00" from="620204251#1" to="534629586#0" departLane="best" departSpeed="max" departPos="random"/>
    <trip id="154" depart="462.00" from="32728039" to="627700575" departLane="best" departSpeed="max" departPos="random"/>
    <trip id="155" depart="465.00" from="-129850265" to="743463789#4" departLane="best" departSpeed="max" departPos="random"/>
    <trip id="156" depart="468.00" from="539261591" to="627921870" departLane="best" departSpeed="max" departPos="random"/>
    <trip id="157" depart="471.00" from="627992332" to="624332308" departLane="best" departSpeed="max" departPos="random"/>
    <trip id="158" depart="474.00" from="448937672" to="-670823577#0" departLane="best" departSpeed="max" departPos="random"/>
    <trip id="159" depart="477.00" from="624300975" to="445716683" departLane="best" departSpeed="max" departPos="random"/>
    <trip id="160" depart="480.00" from="397464766#2" to="655152292#0" departLane="best" departSpeed="max" departPos="random"/>
    <trip id="161" depart="483.00" from="627921870" to="383281887" departLane="best" departSpeed="max" departPos="random"/>
    <trip id="162" depart="486.00" from="397426418#1" to="476147272" departLane="best" departSpeed="max" departPos="random"/>
    <trip id="163" depart="489.00" from="476139922" to="383281860#3" departLane="best" departSpeed="max" departPos="random"/>
    <trip id="164" depart="492.00" from="717470515" to="620272657" departLane="best" departSpeed="max" departPos="random"/>
    <trip id="165" depart="495.00" from="383281882" to="539310356#0" departLane="best" departSpeed="max" departPos="random"/>
    <trip id="166" depart="498.00" from="-1009039138" to="36499234" departLane="best" departSpeed="max" departPos="random"/>
    <trip id="167" depart="501.00" from="476393003" to="582412242" departLane="best" departSpeed="max" departPos="random"/>
    <trip id="168" depart="504.00" from="623718344" to="479337787" departLane="best" departSpeed="max" departPos="random"/>
    <trip id="169" depart="507.00" from="476705417" to="197540846#0" departLane="best" departSpeed="max" departPos="random"/>
    <trip id="170" depart="510.00" from="-789312638" to="534631116" departLane="best" departSpeed="max" departPos="random"/>
    <trip id="171" depart="513.00" from="620546636" to="445716732" departLane="best" departSpeed="max" departPos="random"/>
    <trip id="172" depart="516.00" from="649652550" to="628742183#1" departLane="best" departSpeed="max" departPos="random"/>
    <trip id="173" depart="519.00" from="624601502" to="218215390" departLane="best" departSpeed="max" departPos="random"/>
    <trip id="174" depart="522.00" from="174886203#1" to="-479740741#1" departLane="best" departSpeed="max" departPos="random"/>
    <trip id="175" depart="525.00" from="302094709" to="479744680" departLane="best" departSpeed="max" departPos="random"/>
    <trip id="176" depart="528.00" from="476149340#1" to="620530725" departLane="best" departSpeed="max" departPos="random"/>
    <trip id="177" depart="531.00" from="174886158#0" to="627321391#1" departLane="best" departSpeed="max" departPos="random"/>
    <trip id="178" depart="534.00" from="623977121" to="-159051160" departLane="best" departSpeed="max" departPos="random"/>
    <trip id="179" depart="537.00" from="628742183#0" to="635729661" departLane="best" departSpeed="max" departPos="random"/>
    <trip id="180" depart="540.00" from="1098194174" to="476389379" departLane="best" departSpeed="max" departPos="random"/>
    <trip id="181" depart="543.00" from="1408317017" to="761362870#0" departLane="best" departSpeed="max" departPos="random"/>
    <trip id="182" depart="546.00" from="534635488" to="-645327363" departLane="best" departSpeed="max" departPos="random"/>
    <trip id="183" depart="549.00" from="304396717" to="655152294" departLane="best" departSpeed="max" departPos="random"/>
    <trip id="184" depart="552.00" from="624303949" to="823708587" departLane="best" departSpeed="max" departPos="random"/>
    <trip id="185" depart="555.00" from="582412293" to="754142145" departLane="best" departSpeed="max" departPos="random"/>
    <trip id="186" depart="558.00" from="711645501" to="620243239" departLane="best" departSpeed="max" departPos="random"/>
    <trip id="187" depart="561.00" from="627921867" to="512918239" departLane="best" departSpeed="max" departPos="random"/>
    <trip id="188" depart="564.00" from="652201795" to="539310356#0" departLane="best" departSpeed="max" departPos="random"/>
    <trip id="189" depart="567.00" from="715645006" to="628009023" departLane="best" departSpeed="max" departPos="random"/>
    <trip id="190" depart="570.00" from="479742032" to="32776104" departLane="best" departSpeed="max" departPos="random"/>
    <trip id="191" depart="573.00" from="302094716" to="620594226#0" departLane="best" departSpeed="max" departPos="random"/>
    <trip id="192" depart="576.00" from="635681690" to="534665412" departLane="best" departSpeed="max" departPos="random"/>
    <trip id="193" depart="579.00" from="620524555" to="34403024#1" departLane="best" departSpeed="max" departPos="random"/>
    <trip id="194" depart="582.00" from="-721661465" to="354340127" departLane="best" departSpeed="max" departPos="random"/>
    <trip id="195" depart="585.00" from="33263036" to="445282968" departLane="best" departSpeed="max" departPos="random"/>
    <trip id="196" depart="588.00" from="539298282" to="129850265" departLane="best" departSpeed="max" departPos="random"/>
    <trip id="197" depart="591.00" from="218215420" to="627313931" departLane="best" departSpeed="max" departPos="random"/>
    <trip id="198" depart="594.00" from="627681394" to="-646819628" departLane="best" departSpeed="max" departPos="random"/>
    <trip id="199" depart="597.00" from="476147263" to="539307777#0" departLane="best" departSpeed="max" departPos="random"/>
    <trip id="200" depart="600.00" from="476158180" to="175052990" departLane="best" departSpeed="max" departPos="random"/>
    <trip id="201" depart="603.00" from="476162283" to="717470516" departLane="best" departSpeed="max" departPos="random"/>
    <trip id="202" depart="606.00" from="582412256" to="627320582" departLane="best" departSpeed="max" departPos="random"/>
    <trip id="203" depart="609.00" from="661998675" to="635679590" departLane="best" departSpeed="max" departPos="random"/>
    <trip id="204" depart="612.00" from="464772329" to="-159051162" departLane="best" departSpeed="max" departPos="random"/>
    <trip id="205" depart="615.00" from="448937464#0" to="630107334" departLane="best" departSpeed="max" departPos="random"/>
    <trip id="206" depart="618.00" from="655688608" to="758653633" departLane="best" departSpeed="max" departPos="random"/>
    <trip id="207" depart="621.00" from="539309569#0" to="617971381#0" departLane="best" departSpeed="max" departPos="random"/>
    <trip id="208" depart="624.00" from="218215304#0" to="218215370" departLane="best" departSpeed="max" departPos="random"/>
    <trip id="209" depart="627.00" from="476440467" to="-623370899" departLane="best" departSpeed="max" departPos="random"/>
    <trip id="210" depart="630.00" from="445716727" to="626082264" departLane="best" departSpeed="max" departPos="random"/>
    <trip id="211" depart="633.00" from="476145603" to="1340576220" departLane="best" departSpeed="max" departPos="random"/>
    <trip id="212" depart="636.00" from="479338625" to="1226459850#0" departLane="best" departSpeed="max" departPos="random"/>
    <trip id="213" depart="639.00" from="620519864" to="-539427641" departLane="best" departSpeed="max" departPos="random"/>
    <trip id="214" depart="642.00" from="465523923" to="555777397" departLane="best" departSpeed="max" departPos="random"/>
    <trip id="215" depart="645.00" from="-539427641" to="621227591#1" departLane="best" departSpeed="max" departPos="random"/>
    <trip id="216" depart="648.00" from="1238157023#1" to="479325846#0" departLane="best" departSpeed="max" departPos="random"/>
    <trip id="217" depart="651.00" from="-644913111" to="464793748" departLane="best" departSpeed="max" departPos="random"/>
    <trip id="218" depart="654.00" from="175959380" to="445716666" departLane="best" departSpeed="max" departPos="random"/>
    <trip id="219" depart="657.00" from="635103476" to="464793748" departLane="best" departSpeed="max" departPos="random"/>
    <trip id="220" depart="660.00" from="-450938289#5" to="539267637" departLane="best" departSpeed="max" departPos="random"/>
    <trip id="221" depart="663.00" from="623698865" to="641155290" departLane="best" departSpeed="max" departPos="random"/>
    <trip id="222" depart="666.00" from="623713563#0" to="630109007#0" departLane="best" departSpeed="max" departPos="random"/>
    <trip id="223" depart="669.00" from="754142145" to="174886214" departLane="best" departSpeed="max" departPos="random"/>
    <trip id="224" depart="672.00" from="-450938289#8" to="1328117804#0" departLane="best" departSpeed="max" departPos="random"/>
    <trip id="225" depart="675.00" from="1225837287#1-AddedOnRampEdge" to="624318909" departLane="best" departSpeed="max" departPos="random"/>
    <trip id="226" depart="678.00" from="546736354" to="218215301#1" departLane="best" departSpeed="max" departPos="random"/>
    <trip id="227" depart="681.00" from="627331709" to="635688468" departLane="best" departSpeed="max" departPos="random"/>
    <trip id="228" depart="684.00" from="1340576221#0" to="620211408" departLane="best" departSpeed="max" departPos="random"/>
    <trip id="229" depart="687.00" from="649787121" to="776103861" departLane="best" departSpeed="max" departPos="random"/>
    <trip id="230" depart="690.00" from="1098348946" to="-533676536" departLane="best" departSpeed="max" departPos="random"/>
    <trip id="231" depart="693.00" from="627918600#0" to="-720127783" departLane="best" departSpeed="max" departPos="random"/>
    <trip id="232" depart="696.00" from="1043801534#1" to="638461051" departLane="best" departSpeed="max" departPos="random"/>
    <trip id="233" depart="699.00" from="655621384" to="616193730" departLane="best" departSpeed="max" departPos="random"/>
    <trip id="234" depart="702.00" from="1159349481#0" to="816827037" departLane="best" departSpeed="max" departPos="random"/>