<?xml version="1.0" encoding="UTF-8"?>

<!-- generated on 2025-08-27 13:16:07.622246 by randomTrips.py UNKNOWN
<configuration>
    <net-file value="osm.net.xml.gz"/>
    <output-trip-file value="trips_dens_1.5ps.rou.xml"/>
    <trip-attributes value="departLane=&quot;best&quot; departPos=&quot;random&quot; departSpeed=&quot;max&quot;"/>
    <validate value="True"/>
    <period value="3.4656755"/>
</configuration>
-->

<routes xmlns:xsi="http://www.w3.org/2001/XMLSchema-instance" xsi:noNamespaceSchemaLocation="http://sumo.dlr.de/xsd/routes_file.xsd">
    <trip id="0" depart="0.00" from="34122270" to="218215385" departLane="best" departPos="random" departSpeed="max"/>
    <trip id="1" depart="3.47" from="627983196" to="624964395" departLane="best" departPos="random" departSpeed="max"/>
    <trip id="2" depart="6.93" from="476165175" to="-623977121" departLane="best" departPos="random" departSpeed="max"/>
    <trip id="3" depart="10.40" from="623698864" to="539309567" departLane="best" departPos="random" departSpeed="max"/>
    <trip id="4" depart="13.86" from="218215304#0" to="582412276" departLane="best" departPos="random" departSpeed="max"/>
    <trip id="5" depart="17.33" from="646819628" to="-173243146#0" departLane="best" departPos="random" departSpeed="max"/>
    <trip id="6" depart="20.79" from="646802067" to="627330445" departLane="best" departPos="random" departSpeed="max"/>
    <trip id="7" depart="24.26" from="445716748" to="1336780885#1" departLane="best" departPos="random" departSpeed="max"/>
    <trip id="8" depart="27.73" from="760461814" to="445716738" departLane="best" departPos="random" departSpeed="max"/>
    <trip id="9" depart="31.19" from="1006533337#6-AddedOnRampEdge" to="1039825493" departLane="best" departPos="random" departSpeed="max"/>
    <trip id="10" depart="34.66" from="655172009#2" to="617971383" departLane="best" departPos="random" departSpeed="max"/>
    <trip id="11" depart="38.12" from="646804131" to="627954973#1" departLane="best" departPos="random" departSpeed="max"/>
    <trip id="12" depart="41.59" from="537979490" to="788081972#2" departLane="best" departPos="random" departSpeed="max"/>
    <trip id="13" depart="45.05" from="652142870" to="620514212" departLane="best" departPos="random" departSpeed="max"/>
    <trip id="14" depart="48.52" from="670135361" to="582392188" departLane="best" departPos="random" departSpeed="max"/>
    <trip id="15" depart="51.99" from="627676747" to="-640301637" departLane="best" departPos="random" departSpeed="max"/>
    <trip id="16" depart="55.45" from="218215394" to="36499245" departLane="best" departPos="random" departSpeed="max"/>
    <trip id="17" depart="58.92" from="1043801533#2" to="34941298" departLane="best" departPos="random" departSpeed="max"/>
    <trip id="18" depart="62.38" from="620557606" to="450926025#0" departLane="best" departPos="random" departSpeed="max"/>
    <trip id="19" depart="65.85" from="450938289#5" to="175959380" departLane="best" departPos="random" departSpeed="max"/>
    <trip id="20" depart="69.31" from="32790133" to="74957629" departLane="best" departPos="random" departSpeed="max"/>
    <trip id="21" depart="72.78" from="623683974" to="620219322" departLane="best" departPos="random" departSpeed="max"/>
    <trip id="22" depart="76.24" from="1340576211" to="464793749" departLane="best" departPos="random" departSpeed="max"/>
    <trip id="23" depart="79.71" from="824132298" to="620745574" departLane="best" departPos="random" departSpeed="max"/>
    <trip id="24" depart="83.18" from="545321526" to="626803620" departLane="best" departPos="random" departSpeed="max"/>
    <trip id="25" depart="86.64" from="655138269" to="640010710" departLane="best" departPos="random" departSpeed="max"/>
    <trip id="26" depart="90.11" from="218215400" to="-626600768" departLane="best" departPos="random" departSpeed="max"/>
    <trip id="27" depart="93.57" from="397579050" to="33176090" departLane="best" departPos="random" departSpeed="max"/>
    <trip id="28" depart="97.04" from="175959378" to="75138964" departLane="best" departPos="random" departSpeed="max"/>
    <trip id="29" depart="100.50" from="701654605" to="397579051#2" departLane="best" departPos="random" departSpeed="max"/>
    <trip id="30" depart="103.97" from="623722940" to="475360855" departLane="best" departPos="random" departSpeed="max"/>
    <trip id="31" depart="107.44" from="736677851" to="479325839#0" departLane="best" departPos="random" departSpeed="max"/>
    <trip id="32" depart="110.90" from="32776945" to="302094718" departLane="best" departPos="random" departSpeed="max"/>
    <trip id="33" depart="114.37" from="546384217" to="32776866" departLane="best" departPos="random" departSpeed="max"/>
    <trip id="34" depart="117.83" from="582412258" to="715626227#1" departLane="best" departPos="random" departSpeed="max"/>
    <trip id="35" depart="121.30" from="476138604#0" to="218215370" departLane="best" departPos="random" departSpeed="max"/>
    <trip id="36" depart="124.76" from="847953070" to="533821482" departLane="best" departPos="random" departSpeed="max"/>
    <trip id="37" depart="128.23" from="1006533337#0-AddedOffRampEdge" to="-644627265#0" departLane="best" departPos="random" departSpeed="max"/>
    <trip id="38" depart="131.70" from="1098348950#1" to="620524556" departLane="best" departPos="random" departSpeed="max"/>
    <trip id="39" depart="135.16" from="646154599" to="476166950" departLane="best" departPos="random" departSpeed="max"/>
    <trip id="40" depart="138.63" from="-646804131" to="464793756" departLane="best" departPos="random" departSpeed="max"/>
    <trip id="41" depart="142.09" from="829059383" to="536039235" departLane="best" departPos="random" departSpeed="max"/>
    <trip id="42" depart="145.56" from="785346522#0" to="665471136#1" departLane="best" departPos="random" departSpeed="max"/>
    <trip id="43" depart="149.02" from="1098353820#0" to="476440467" departLane="best" departPos="random" departSpeed="max"/>
    <trip id="44" depart="152.49" from="478312418#0" to="758653634#0" departLane="best" departPos="random" departSpeed="max"/>
    <trip id="45" depart="155.96" from="701651543#0" to="32776945" departLane="best" departPos="random" departSpeed="max"/>
    <trip id="46" depart="159.42" from="512918152" to="163139027" departLane="best" departPos="random" departSpeed="max"/>
    <trip id="47" depart="162.89" from="383281862#3" to="620594227#2" departLane="best" departPos="random" departSpeed="max"/>
    <trip id="48" depart="166.35" from="620219322" to="1328117805#0" departLane="best" departPos="random" departSpeed="max"/>
    <trip id="49" depart="169.82" from="635639076" to="539267637" departLane="best" departPos="random" departSpeed="max"/>
    <trip id="50" depart="173.28" from="641080748#1" to="536420696#1" departLane="best" departPos="random" departSpeed="max"/>
    <trip id="51" depart="176.75" from="-1009039138" to="445716656#0" departLane="best" departPos="random" departSpeed="max"/>
    <trip id="52" depart="180.22" from="-450938289#5" to="74477408#2" departLane="best" departPos="random" departSpeed="max"/>
    <trip id="53" depart="183.68" from="703357367#1" to="652142870" departLane="best" departPos="random" departSpeed="max"/>
    <trip id="54" depart="187.15" from="391007746" to="-646693306" departLane="best" departPos="random" departSpeed="max"/>
    <trip id="55" depart="190.61" from="703357362" to="751787525" departLane="best" departPos="random" departSpeed="max"/>
    <trip id="56" depart="194.08" from="-791210567" to="512918076" departLane="best" departPos="random" departSpeed="max"/>
    <trip id="57" depart="197.54" from="635681690" to="1226459852#0" departLane="best" departPos="random" departSpeed="max"/>
    <trip id="58" depart="201.01" from="479742358" to="539427641" departLane="best" departPos="random" departSpeed="max"/>
    <trip id="59" depart="204.47" from="32776985" to="692247182" departLane="best" departPos="random" departSpeed="max"/>
    <trip id="60" depart="207.94" from="476166950" to="185279269#0" departLane="best" departPos="random" departSpeed="max"/>
    <trip id="61" depart="211.41" from="539261599" to="627954973#1" departLane="best" departPos="random" departSpeed="max"/>
    <trip id="62" depart="214.87" from="174886213" to="397464764#1" departLane="best" departPos="random" departSpeed="max"/>
    <trip id="63" depart="218.34" from="826790602" to="623698863" departLane="best" departPos="random" departSpeed="max"/>
    <trip id="64" depart="221.80" from="476689617" to="534637123#0" departLane="best" departPos="random" departSpeed="max"/>
    <trip id="65" depart="225.27" from="1159349481#0" to="218215390" departLane="best" departPos="random" departSpeed="max"/>
    <trip id="66" depart="228.73" from="445716737" to="582412273#0" departLane="best" departPos="random" departSpeed="max"/>
    <trip id="67" depart="232.20" from="218215409" to="218215374" departLane="best" departPos="random" departSpeed="max"/>
    <trip id="68" depart="235.67" from="-670345935" to="620532294" departLane="best" departPos="random" departSpeed="max"/>
    <trip id="69" depart="239.13" from="218215400" to="718229611" departLane="best" departPos="random" departSpeed="max"/>
    <trip id="70" depart="242.60" from="665482689" to="-675932729" departLane="best" departPos="random" departSpeed="max"/>
    <trip id="71" depart="246.06" from="231414427" to="624318907" departLane="best" departPos="random" departSpeed="max"/>
    <trip id="72" depart="249.53" from="185279269#1" to="1238157022#1" departLane="best" departPos="random" departSpeed="max"/>
    <trip id="73" depart="252.99" from="74953829#0" to="582303300#1" departLane="best" departPos="random" departSpeed="max"/>
    <trip id="74" depart="256.46" from="646804132" to="174281625" departLane="best" departPos="random" departSpeed="max"/>
    <trip id="75" depart="259.93" from="1035567246" to="476395133" departLane="best" departPos="random" departSpeed="max"/>
    <trip id="76" depart="263.39" from="476166951" to="479339460" departLane="best" departPos="random" departSpeed="max"/>
    <trip id="77" depart="266.86" from="627954127" to="624655284#0" departLane="best" departPos="random" departSpeed="max"/>
    <trip id="78" depart="270.32" from="816827037" to="1039826513" departLane="best" departPos="random" departSpeed="max"/>
    <trip id="79" depart="273.79" from="476139922" to="445716752" departLane="best" departPos="random" departSpeed="max"/>
    <trip id="80" depart="277.25" from="669875362" to="305950849" departLane="best" departPos="random" departSpeed="max"/>
    <trip id="81" depart="280.72" from="173963235#0" to="478299268#0" departLane="best" departPos="random" departSpeed="max"/>
    <trip id="82" depart="284.19" from="476165175" to="34941305" departLane="best" departPos="random" departSpeed="max"/>
    <trip id="83" depart="287.65" from="305950849" to="743216845" departLane="best" departPos="random" departSpeed="max"/>
    <trip id="84" depart="291.12" from="476705427" to="665471138#2" departLane="best" departPos="random" departSpeed="max"/>
    <trip id="85" depart="294.58" from="539427641" to="-646138487#0" departLane="best" departPos="random" departSpeed="max"/>
    <trip id="86" depart="298.05" from="947210815#1" to="652352810" departLane="best" departPos="random" departSpeed="max"/>
    <trip id="87" depart="301.51" from="782971921#1" to="743463795" departLane="best" departPos="random" departSpeed="max"/>
    <trip id="88" depart="304.98" from="655184948#1" to="1340576221#2" departLane="best" departPos="random" departSpeed="max"/>
    <trip id="89" depart="308.45" from="512918073" to="197540846#0" departLane="best" departPos="random" departSpeed="max"/>
    <trip id="90" depart="311.91" from="476138608#1" to="-646721040" departLane="best" departPos="random" departSpeed="max"/>
    <trip id="91" depart="315.38" from="464772323" to="822091336#0" departLane="best" departPos="random" departSpeed="max"/>
    <trip id="92" depart="318.84" from="32776985" to="644432258" departLane="best" departPos="random" departSpeed="max"/>
    <trip id="93" depart="322.31" from="479309336" to="476166954" departLane="best" departPos="random" departSpeed="max"/>
    <trip id="94" depart="325.77" from="760461814" to="828670751" departLane="best" departPos="random" departSpeed="max"/>
    <trip id="95" depart="329.24" from="545321522" to="627921866" departLane="best" departPos="random" departSpeed="max"/>
    <trip id="96" depart="332.70" from="1328117805#0" to="383281862#2" departLane="best" departPos="random" departSpeed="max"/>
    <trip id="97" depart="336.17" from="782971921#0" to="582392194#0" departLane="best" departPos="random" departSpeed="max"/>
    <trip id="98" depart="339.64" from="-646210496" to="582412259" departLane="best" departPos="random" departSpeed="max"/>
    <trip id="99" depart="343.10" from="512918159" to="655621384" departLane="best" departPos="random" departSpeed="max"/>
    <trip id="100" depart="346.57" from="1336780885#0" to="774906812" departLane="best" departPos="random" departSpeed="max"/>
    <trip id="101" depart="350.03" from="582412292" to="624953413" departLane="best" departPos="random" departSpeed="max"/>
    <trip id="102" depart="353.50" from="22653233#0" to="1159349483" departLane="best" departPos="random" departSpeed="max"/>
    <trip id="103" depart="356.96" from="582412291#0" to="620514215" departLane="best" departPos="random" departSpeed="max"/>
    <trip id="104" depart="360.43" from="476162273" to="582412257" departLane="best" departPos="random" departSpeed="max"/>
    <trip id="105" depart="363.90" from="535773824" to="748550932#0" departLane="best" departPos="random" departSpeed="max"/>
    <trip id="106" depart="367.36" from="263926705" to="475921344" departLane="best" departPos="random" departSpeed="max"/>
    <trip id="107" depart="370.83" from="624350266" to="383281883" departLane="best" departPos="random" departSpeed="max"/>
    <trip id="108" depart="374.29" from="-677004516" to="479324767" departLane="best" departPos="random" departSpeed="max"/>
    <trip id="109" depart="377.76" from="947210814#2-AddedOffRampEdge" to="829068637#0" departLane="best" departPos="random" departSpeed="max"/>
    <trip id="110" depart="381.22" from="-680834429" to="190451327" departLane="best" departPos="random" departSpeed="max"/>
    <trip id="111" depart="384.69" from="32776985" to="74668485" departLane="best" departPos="random" departSpeed="max"/>
    <trip id="112" depart="388.16" from="704807977#0" to="703353366" departLane="best" departPos="random" departSpeed="max"/>
    <trip id="113" depart="391.62" from="450938289#2" to="1336780888#1" departLane="best" departPos="random" departSpeed="max"/>
    <trip id="114" depart="395.09" from="652354791" to="627666628" departLane="best" departPos="random" departSpeed="max"/>
    <trip id="115" depart="398.55" from="620236890" to="823706107" departLane="best" departPos="random" departSpeed="max"/>
    <trip id="116" depart="402.02" from="623715811#0" to="-22653004" departLane="best" departPos="random" departSpeed="max"/>
    <trip id="117" depart="405.48" from="624294478" to="74963941#1" departLane="best" departPos="random" departSpeed="max"/>
    <trip id="118" depart="408.95" from="1238157022#3-AddedOffRampEdge" to="1124778509#3" departLane="best" departPos="random" departSpeed="max"/>
    <trip id="119" depart="412.42" from="33263143#1" to="617971429" departLane="best" departPos="random" departSpeed="max"/>
    <trip id="120" depart="415.88" from="627920190" to="175015686" departLane="best" departPos="random" departSpeed="max"/>
    <trip id="121" depart="419.35" from="620546645" to="32788304" departLane="best" departPos="random" departSpeed="max"/>
    <trip id="122" depart="422.81" from="512918086" to="718229611" departLane="best" departPos="random" departSpeed="max"/>
    <trip id="123" depart="426.28" from="655154945" to="1009039136#1" departLane="best" departPos="random" departSpeed="max"/>
    <trip id="124" depart="429.74" from="-1336780893" to="636849866" departLane="best" departPos="random" departSpeed="max"/>
    <trip id="125" depart="433.21" from="620594226#0" to="32776854" departLane="best" departPos="random" departSpeed="max"/>
    <trip id="126" depart="436.68" from="476389382" to="-32759866" departLane="best" departPos="random" departSpeed="max"/>
    <trip id="127" depart="440.14" from="718229612" to="539309569#0" departLane="best" departPos="random" departSpeed="max"/>
    <trip id="128" depart="443.61" from="652357031" to="582412254" departLane="best" departPos="random" departSpeed="max"/>
    <trip id="129" depart="447.07" from="1328117791#0" to="1226459849#0" departLane="best" departPos="random" departSpeed="max"/>
    <trip id="130" depart="450.54" from="397426415" to="715645007" departLane="best" departPos="random" departSpeed="max"/>
    <trip id="131" depart="454.00" from="646205873" to="665471135" departLane="best" departPos="random" departSpeed="max"/>
    <trip id="132" depart="457.47" from="717057839" to="175959440" departLane="best" departPos="random" departSpeed="max"/>
    <trip id="133" depart="460.93" from="305950849" to="1074709531" departLane="best" departPos="random" departSpeed="max"/>
    <trip id="134" depart="464.40" from="641153320" to="704840580" departLane="best" departPos="random" departSpeed="max"/>
    <trip id="135" depart="467.87" from="476145609" to="620514574" departLane="best" departPos="random" departSpeed="max"/>
    <trip id="136" depart="471.33" from="1328117804#0" to="74549037#1" departLane="best" departPos="random" departSpeed="max"/>
    <trip id="137" depart="474.80" from="646845858" to="703358938" departLane="best" departPos="random" departSpeed="max"/>
    <trip id="138" depart="478.26" from="445716683" to="74549046#0" departLane="best" departPos="random" departSpeed="max"/>
    <trip id="139" depart="481.73" from="645287549#1" to="1098348950#0" departLane="best" departPos="random" departSpeed="max"/>
    <trip id="140" depart="485.19" from="698073252" to="657503074" departLane="best" departPos="random" departSpeed="max"/>
    <trip id="141" depart="488.66" from="218215375" to="649101838" departLane="best" departPos="random" departSpeed="max"/>
    <trip id="142" depart="492.13" from="479325840#0" to="391007733#0" departLane="best" departPos="random" departSpeed="max"/>
    <trip id="143" depart="495.59" from="646205393#2-AddedOnRampEdge" to="218215404" departLane="best" departPos="random" departSpeed="max"/>
    <trip id="144" depart="499.06" from="-479325848#1" to="174886158#2" departLane="best" departPos="random" departSpeed="max"/>
    <trip id="145" depart="502.52" from="445716664#0" to="669875362" departLane="best" departPos="random" departSpeed="max"/>
    <trip id="146" depart="505.99" from="780092336" to="349413652" departLane="best" departPos="random" departSpeed="max"/>
    <trip id="147" depart="509.45" from="621227590#2" to="476138608#1" departLane="best" departPos="random" departSpeed="max"/>
    <trip id="148" depart="512.92" from="74963947#2" to="1124778509#3" departLane="best" departPos="random" departSpeed="max"/>
    <trip id="149" depart="516.39" from="784712576#1" to="163139027" departLane="best" departPos="random" departSpeed="max"/>
    <trip id="150" depart="519.85" from="775888832#0" to="32790032#2" departLane="best" departPos="random" departSpeed="max"/>
    <trip id="151" depart="523.32" from="1098348947#0" to="476440464#0" departLane="best" departPos="random" departSpeed="max"/>
    <trip id="152" depart="526.78" from="627949755" to="397579050" departLane="best" departPos="random" departSpeed="max"/>
    <trip id="153" depart="530.25" from="620204251#1" to="534629586#0" departLane="best" departPos="random" departSpeed="max"/>
    <trip id="154" depart="533.71" from="32728039" to="627700575" departLane="best" departPos="random" departSpeed="max"/>
    <trip id="155" depart="537.18" from="-129850265" to="743463789#4" departLane="best" departPos="random" departSpeed="max"/>
    <trip id="156" depart="540.65" from="539261591" to="627921870" departLane="best" departPos="random" departSpeed="max"/>
    <trip id="157" depart="544.11" from="627992332" to="624332308" departLane="best" departPos="random" departSpeed="max"/>
    <trip id="158" depart="547.58" from="448937672" to="-670823577#0" departLane="best" departPos="random" departSpeed="max"/>
    <trip id="159" depart="551.04" from="624300975" to="445716683" departLane="best" departPos="random" departSpeed="max"/>
    <trip id="160" depart="554.51" from="397464766#2" to="655152292#0" departLane="best" departPos="random" departSpeed="max"/>
    <trip id="161" depart="557.97" from="627921870" to="383281887" departLane="best" departPos="random" departSpeed="max"/>
    <trip id="162" depart="561.44" from="397426418#1" to="476147272" departLane="best" departPos="random" departSpeed="max"/>
    <trip id="163" depart="564.91" from="476139922" to="383281860#3" departLane="best" departPos="random" departSpeed="max"/>
    <trip id="164" depart="568.37" from="717470515" to="620272657" departLane="best" departPos="random" departSpeed="max"/>
    <trip id="165" depart="571.84" from="383281882" to="539310356#0" departLane="best" departPos="random" departSpeed="max"/>
    <trip id="166" depart="575.30" from="-1009039138" to="36499234" departLane="best" departPos="random" departSpeed="max"/>
    <trip id="167" depart="578.77" from="476393003" to="582412242" departLane="best" departPos="random" departSpeed="max"/>
    <trip id="168" depart="582.23" from="623718344" to="479337787" departLane="best" departPos="random" departSpeed="max"/>
    <trip id="169" depart="585.70" from="476705417" to="197540846#0" departLane="best" departPos="random" departSpeed="max"/>
    <trip id="170" depart="589.16" from="-789312638" to="534631116" departLane="best" departPos="random" departSpeed="max"/>
    <trip id="171" depart="592.63" from="620546636" to="445716732" departLane="best" departPos="random" departSpeed="max"/>
    <trip id="172" depart="596.10" from="649652550" to="628742183#1" departLane="best" departPos="random" departSpeed="max"/>
    <trip id="173" depart="599.56" from="624601502" to="218215390" departLane="best" departPos="random" departSpeed="max"/>
    <trip id="174" depart="603.03" from="174886203#1" to="-479740741#1" departLane="best" departPos="random" departSpeed="max"/>
    <trip id="175" depart="606.49" from="302094709" to="479744680" departLane="best" departPos="random" departSpeed="max"/>
    <trip id="176" depart="609.96" from="476149340#1" to="620530725" departLane="best" departPos="random" departSpeed="max"/>
    <trip id="177" depart="613.42" from="174886158#0" to="627321391#1" departLane="best" departPos="random" departSpeed="max"/>
    <trip id="178" depart="616.89" from="623977121" to="-159051160" departLane="best" departPos="random" departSpeed="max"/>
    <trip id="179" depart="620.36" from="628742183#0" to="635729661" departLane="best" departPos="random" departSpeed="max"/>
    <trip id="180" depart="623.82" from="1098194174" to="476389379" departLane="best" departPos="random" departSpeed="max"/>
    <trip id="181" depart="627.29" from="1408317017" to="761362870#0" departLane="best" departPos="random" departSpeed="max"/>
    <trip id="182" depart="630.75" from="534635488" to="-645327363" departLane="best" departPos="random" departSpeed="max"/>
    <trip id="183" depart="634.22" from="304396717" to="655152294" departLane="best" departPos="random" departSpeed="max"/>
    <trip id="184" depart="637.68" from="624303949" to="823708587" departLane="best" departPos="random" departSpeed="max"/>
    <trip id="185" depart="641.15" from="582412293" to="754142145" departLane="best" departPos="random" departSpeed="max"/>
    <trip id="186" depart="644.62" from="711645501" to="620243239" departLane="best" departPos="random" departSpeed="max"/>
    <trip id="187" depart="648.08" from="627921867" to="512918239" departLane="best" departPos="random" departSpeed="max"/>
    <trip id="188" depart="651.55" from="652201795" to="539310356#0" departLane="best" departPos="random" departSpeed="max"/>
    <trip id="189" depart="655.01" from="715645006" to="628009023" departLane="best" departPos="random" departSpeed="max"/>
    <trip id="190" depart="658.48" from="479742032" to="32776104" departLane="best" departPos="random" departSpeed="max"/>
    <trip id="191" depart="661.94" from="302094716" to="620594226#0" departLane="best" departPos="random" departSpeed="max"/>
    <trip id="192" depart="665.41" from="635681690" to="534665412" departLane="best" departPos="random" departSpeed="max"/>
    <trip id="193" depart="668.88" from="620524555" to="34403024#1" departLane="best" departPos="random" departSpeed="max"/>
    <trip id="194" depart="672.34" from="-721661465" to="354340127" departLane="best" departPos="random" departSpeed="max"/>
    <trip id="195" depart="675.81" from="33263036" to="445282968" departLane="best" departPos="random" departSpeed="max"/>
    <trip id="196" depart="679.27" from="539298282" to="129850265" departLane="best" departPos="random" departSpeed="max"/>
    <trip id="197" depart="682.74" from="218215420" to="627313931" departLane="best" departPos="random" departSpeed="max"/>
    <trip id="198" depart="686.20" from="627681394" to="-646819628" departLane="best" departPos="random" departSpeed="max"/>
    <trip id="199" depart="689.67" from="476147263" to="539307777#0" departLane="best" departPos="random" departSpeed="max"/>
    <trip id="200" depart="693.14" from="476158180" to="175052990" departLane="best" departPos="random" departSpeed="max"/>
    <trip id="201" depart="696.60" from="476162283" to="717470516" departLane="best" departPos="random" departSpeed="max"/>
    <trip id="202" depart="700.07" from="582412256" to="627320582" departLane="best" departPos="random" departSpeed="max"/>
    <trip id="203" depart="703.53" from="661998675" to="635679590" departLane="best" departPos="random" departSpeed="max"/>
    <trip id="204" depart="707.00" from="464772329" to="-159051162" departLane="best" departPos="random" departSpeed="max"/>
    <trip id="205" depart="710.46" from="448937464#0" to="630107334" departLane="best" departPos="random" departSpeed="max"/>
    <trip id="206" depart="713.93" from="655688608" to="758653633" departLane="best" departPos="random" departSpeed="max"/>
    <trip id="207" depart="717.39" from="539309569#0" to="617971381#0" departLane="best" departPos="random" departSpeed="max"/>
    <trip id="208" depart="720.86" from="218215304#0" to="218215370" departLane="best" departPos="random" departSpeed="max"/>
    <trip id="209" depart="724.33" from="476440467" to="-623370899" departLane="best" departPos="random" departSpeed="max"/>
    <trip id="210" depart="727.79" from="445716727" to="626082264" departLane="best" departPos="random" departSpeed="max"/>
    <trip id="211" depart="731.26" from="476145603" to="1340576220" departLane="best" departPos="random" departSpeed="max"/>
    <trip id="212" depart="734.72" from="479338625" to="1226459850#0" departLane="best" departPos="random" departSpeed="max"/>
    <trip id="213" depart="738.19" from="620519864" to="-539427641" departLane="best" departPos="random" departSpeed="max"/>
    <trip id="214" depart="741.65" from="465523923" to="555777397" departLane="best" departPos="random" departSpeed="max"/>
    <trip id="215" depart="745.12" from="-539427641" to="621227591#1" departLane="best" departPos="random" departSpeed="max"/>
    <trip id="216" depart="748.59" from="1238157023#1" to="479325846#0" departLane="best" departPos="random" departSpeed="max"/>
    <trip id="217" depart="752.05" from="-644913111" to="464793748" departLane="best" departPos="random" departSpeed="max"/>
    <trip id="218" depart="755.52" from="175959380" to="445716666" departLane="best" departPos="random" departSpeed="max"/>
    <trip id="219" depart="758.98" from="635103476" to="464793748" departLane="best" departPos="random" departSpeed="max"/>
    <trip id="220" depart="762.45" from="-450938289#5" to="539267637" departLane="best" departPos="random" departSpeed="max"/>
    <trip id="221" depart="765.91" from="623698865" to="641155290" departLane="best" departPos="random" departSpeed="max"/>
    <trip id="222" depart="769.38" from="623713563#0" to="630109007#0" departLane="best" departPos="random" departSpeed="max"/>
    <trip id="223" depart="772.85" from="754142145" to="174886214" departLane="best" departPos="random" departSpeed="max"/>
    <trip id="224" depart="776.31" from="-450938289#8" to="1328117804#0" departLane="best" departPos="random" departSpeed="max"/>
    <trip id="225" depart="779.78" from="1225837287#1-AddedOnRampEdge" to="624318909" departLane="best" departPos="random" departSpeed="max"/>
    <trip id="226" depart="783.24" from="546736354" to="218215301#1" departLane="best" departPos="random" departSpeed="max"/>
    <trip id="227" depart="786.71" from="627331709" to="635688468" departLane="best" departPos="random" departSpeed="max"/>
    <trip id="228" depart="790.17" from="1340576221#0" to="620211408" departLane="best" departPos="random" departSpeed="max"/>
    <trip id="229" depart="793.64" from="649787121" to="776103861" departLane="best" departPos="random" departSpeed="max"/>
    <trip id="230" depart="797.11" from="1098348946" to="-533676536" departLane="best" departPos="random" departSpeed="max"/>
    <trip id="231" depart="800.57" from="627918600#0" to="-720127783" departLane="best" departPos="random" departSpeed="max"/>
    <trip id="232" depart="804.04" from="1043801534#1" to="638461051" departLane="best" departPos="random" departSpeed="max"/>
    <trip id="233" depart="807.50" from="655621384" to="616193730" departLane="best" departPos="random" departSpeed="max"/>
    <trip id="234" depart="810.97" from="1159349481#0" to="816827037" departLane="best" departPos="random" departSpeed="max"/>