<?xml version="1.0" encoding="UTF-8"?>

<!-- generated on 2025-08-20 16:32:30.525563 by randomTrips.py UNKNOWN
<configuration>
    <net-file value="osm.net.xml.gz"/>
    <output-trip-file value="trips_low.rou.xml"/>
    <trip-attributes value="departLane=&quot;best&quot; departSpeed=&quot;max&quot; departPos=&quot;random&quot;"/>
    <validate value="True"/>
    <period value="3.0"/>
</configuration>
-->

<routes xmlns:xsi="http://www.w3.org/2001/XMLSchema-instance" xsi:noNamespaceSchemaLocation="http://sumo.dlr.de/xsd/routes_file.xsd">
    <trip id="0" depart="0.00" from="24028653#0" to="-130822234#2" departLane="best" departSpeed="max" departPos="random"/>
    <trip id="1" depart="3.00" from="-690496989" to="-342886913#2" departLane="best" departSpeed="max" departPos="random"/>
    <trip id="2" depart="6.00" from="474164339#0" to="302532518#11" departLane="best" departSpeed="max" departPos="random"/>
    <trip id="3" depart="9.00" from="699576529" to="-19978070#4" departLane="best" departSpeed="max" departPos="random"/>
    <trip id="4" depart="12.00" from="120623183#0" to="-130844977#1" departLane="best" departSpeed="max" departPos="random"/>
    <trip id="5" depart="15.00" from="-381427100" to="19793641#3" departLane="best" departSpeed="max" departPos="random"/>
    <trip id="6" depart="18.00" from="-130821718#0" to="-27575545#0" departLane="best" departSpeed="max" departPos="random"/>
    <trip id="7" depart="21.00" from="243118981#0" to="200442617#3" departLane="best" departSpeed="max" departPos="random"/>
    <trip id="8" depart="24.00" from="-382406378#1" to="22943121" departLane="best" departSpeed="max" departPos="random"/>
    <trip id="9" depart="27.00" from="690320613#3" to="-1214120999#1" departLane="best" departSpeed="max" departPos="random"/>
    <trip id="10" depart="30.00" from="690272657#3" to="36812785#12" departLane="best" departSpeed="max" departPos="random"/>
    <trip id="11" depart="33.00" from="-88308897#1" to="-23784448#2" departLane="best" departSpeed="max" departPos="random"/>
    <trip id="12" depart="36.00" from="90447863#2" to="-88308811#0" departLane="best" departSpeed="max" departPos="random"/>
    <trip id="13" depart="39.00" from="-199954902#2" to="-200733758" departLane="best" departSpeed="max" departPos="random"/>
    <trip id="14" depart="42.00" from="695717816#0" to="23003439#5" departLane="best" departSpeed="max" departPos="random"/>
    <trip id="15" depart="45.00" from="690320592#0" to="47484424" departLane="best" departSpeed="max" departPos="random"/>
    <trip id="16" depart="48.00" from="19979581#7" to="90564606" departLane="best" departSpeed="max" departPos="random"/>
    <trip id="17" depart="51.00" from="-90447868#4" to="21022811#1" departLane="best" departSpeed="max" departPos="random"/>
    <trip id="18" depart="54.00" from="693636243#2" to="235769645#4" departLane="best" departSpeed="max" departPos="random"/>
    <trip id="19" depart="57.00" from="696489862" to="22882544#3" departLane="best" departSpeed="max" departPos="random"/>
    <trip id="20" depart="60.00" from="342886918#3" to="-138507652#5" departLane="best" departSpeed="max" departPos="random"/>
    <trip id="21" depart="63.00" from="-38653200#0" to="-696192799#0" departLane="best" departSpeed="max" departPos="random"/>
    <trip id="22" depart="66.00" from="-19822414#1" to="-38434953#1" departLane="best" departSpeed="max" departPos="random"/>
    <trip id="23" depart="69.00" from="-206087971" to="-690516608#2" departLane="best" departSpeed="max" departPos="random"/>
    <trip id="24" depart="72.00" from="24028363#4" to="-90447848#1" departLane="best" departSpeed="max" departPos="random"/>
    <trip id="25" depart="75.00" from="-90447860#0" to="-319824016" departLane="best" departSpeed="max" departPos="random"/>
    <trip id="26" depart="78.00" from="-689012448#3" to="90429191#0" departLane="best" departSpeed="max" departPos="random"/>
    <trip id="27" depart="81.00" from="243118977#3" to="23044196#3" departLane="best" departSpeed="max" departPos="random"/>
    <trip id="28" depart="84.00" from="-243118976" to="47484420#0" departLane="best" departSpeed="max" departPos="random"/>
    <trip id="29" depart="87.00" from="-24028363#0" to="-90447893#0" departLane="best" departSpeed="max" departPos="random"/>
    <trip id="30" depart="90.00" from="927678217" to="243019178" departLane="best" departSpeed="max" departPos="random"/>
    <trip id="31" depart="93.00" from="21023952" to="322606171#0" departLane="best" departSpeed="max" departPos="random"/>
    <trip id="32" depart="96.00" from="695671313" to="688956929" departLane="best" departSpeed="max" departPos="random"/>
    <trip id="33" depart="99.00" from="-389883941#2" to="-1312173239" departLane="best" departSpeed="max" departPos="random"/>
    <trip id="34" depart="102.00" from="-71381508#1" to="-688947790#2" departLane="best" departSpeed="max" departPos="random"/>
    <trip id="35" depart="105.00" from="-331354985#1" to="90447833#1" departLane="best" departSpeed="max" departPos="random"/>
    <trip id="36" depart="108.00" from="697182261#3" to="-699619659#3" departLane="best" departSpeed="max" departPos="random"/>
    <trip id="37" depart="111.00" from="258507390#0" to="-927524289" departLane="best" departSpeed="max" departPos="random"/>
    <trip id="38" depart="114.00" from="79888971#5" to="1308959869#0" departLane="best" departSpeed="max" departPos="random"/>
    <trip id="39" depart="117.00" from="-688947790#1" to="-47484434#2" departLane="best" departSpeed="max" departPos="random"/>
    <trip id="40" depart="120.00" from="21992504#0" to="-669331673" departLane="best" departSpeed="max" departPos="random"/>
    <trip id="41" depart="123.00" from="22882566#2" to="743764375#5" departLane="best" departSpeed="max" departPos="random"/>
    <trip id="42" depart="126.00" from="96957117#0" to="19821513#0" departLane="best" departSpeed="max" departPos="random"/>
    <trip id="43" depart="129.00" from="-19979581#6" to="-1415527424" departLane="best" departSpeed="max" departPos="random"/>
    <trip id="44" depart="132.00" from="-22758905#3" to="24028276#2" departLane="best" departSpeed="max" departPos="random"/>
    <trip id="45" depart="135.00" from="689176059#0" to="1214280621" departLane="best" departSpeed="max" departPos="random"/>
    <trip id="46" depart="138.00" from="-175230868" to="-90564601#0" departLane="best" departSpeed="max" departPos="random"/>
    <trip id="47" depart="141.00" from="965528711#2" to="19977502#0" departLane="best" departSpeed="max" departPos="random"/>
    <trip id="48" depart="144.00" from="90564609#1" to="696529205#0" departLane="best" departSpeed="max" departPos="random"/>
    <trip id="49" depart="147.00" from="-1237215042#4" to="41704359#1" departLane="best" departSpeed="max" departPos="random"/>
    <trip id="50" depart="150.00" from="27575769" to="19979971#0" departLane="best" departSpeed="max" departPos="random"/>
    <trip id="51" depart="153.00" from="-689012448#3" to="243118976" departLane="best" departSpeed="max" departPos="random"/>
    <trip id="52" depart="156.00" from="-22802755" to="1267029558#0" departLane="best" departSpeed="max" departPos="random"/>
    <trip id="53" depart="159.00" from="130845501#0" to="90447857" departLane="best" departSpeed="max" departPos="random"/>
    <trip id="54" depart="162.00" from="697182261#2" to="-672462925#1" departLane="best" departSpeed="max" departPos="random"/>
    <trip id="55" depart="165.00" from="193292264#0" to="-250699717#1" departLane="best" departSpeed="max" departPos="random"/>
    <trip id="56" depart="168.00" from="795280280#1" to="696967817" departLane="best" departSpeed="max" departPos="random"/>
    <trip id="57" depart="171.00" from="-696748676" to="24238048#0" departLane="best" departSpeed="max" departPos="random"/>
    <trip id="58" depart="174.00" from="23025882#4" to="-233740169#2" departLane="best" departSpeed="max" departPos="random"/>
    <trip id="59" depart="177.00" from="635483486#7" to="199982818" departLane="best" departSpeed="max" departPos="random"/>
    <trip id="60" depart="180.00" from="688956452#0" to="19977738#0" departLane="best" departSpeed="max" departPos="random"/>
    <trip id="61" depart="183.00" from="-1028906331#3" to="-75608980#0" departLane="best" departSpeed="max" departPos="random"/>
    <trip id="62" depart="186.00" from="-1267033588" to="89641214" departLane="best" departSpeed="max" departPos="random"/>
    <trip id="63" depart="189.00" from="697231512#5" to="695511040#0" departLane="best" departSpeed="max" departPos="random"/>
    <trip id="64" depart="192.00" from="-698775301#2" to="-170345942" departLane="best" departSpeed="max" departPos="random"/>
    <trip id="65" depart="195.00" from="697231511" to="90447843#1" departLane="best" departSpeed="max" departPos="random"/>
    <trip id="66" depart="198.00" from="-19873475#9" to="148818702#1" departLane="best" departSpeed="max" departPos="random"/>
    <trip id="67" depart="201.00" from="-193297054#1" to="643257646" departLane="best" departSpeed="max" departPos="random"/>
    <trip id="68" depart="204.00" from="642034964#1" to="-22943121" departLane="best" departSpeed="max" departPos="random"/>
    <trip id="69" depart="207.00" from="138507652#13" to="20408951#0" departLane="best" departSpeed="max" departPos="random"/>
    <trip id="70" depart="210.00" from="-688947790#2" to="697048057" departLane="best" departSpeed="max" departPos="random"/>
    <trip id="71" depart="213.00" from="1214280620#0" to="-322604697#1" departLane="best" departSpeed="max" departPos="random"/>
    <trip id="72" depart="216.00" from="199954902#2" to="47484424" departLane="best" departSpeed="max" departPos="random"/>
    <trip id="73" depart="219.00" from="-302852024#1" to="-699544168#4" departLane="best" departSpeed="max" departPos="random"/>
    <trip id="74" depart="222.00" from="964568154" to="258519969#0" departLane="best" departSpeed="max" departPos="random"/>
    <trip id="75" depart="225.00" from="1281066517" to="19822582#2" departLane="best" departSpeed="max" departPos="random"/>
    <trip id="76" depart="228.00" from="-22882566#12" to="-381431263#4" departLane="best" departSpeed="max" departPos="random"/>
    <trip id="77" depart="231.00" from="-88308847" to="22943109#0" departLane="best" departSpeed="max" departPos="random"/>
    <trip id="78" depart="234.00" from="-392493390#1" to="-342881869#11" departLane="best" departSpeed="max" departPos="random"/>
    <trip id="79" depart="237.00" from="-19820981" to="24028408#0" departLane="best" departSpeed="max" departPos="random"/>
    <trip id="80" depart="240.00" from="-389883941#2" to="77991177#0" departLane="best" departSpeed="max" departPos="random"/>
    <trip id="81" depart="243.00" from="696452636#2" to="-19821233#1" departLane="best" departSpeed="max" departPos="random"/>
    <trip id="82" depart="246.00" from="-47484424" to="269499250#1" departLane="best" departSpeed="max" departPos="random"/>
    <trip id="83" depart="249.00" from="-342881869#13" to="-22943166#12" departLane="best" departSpeed="max" departPos="random"/>
    <trip id="84" depart="252.00" from="138507644" to="689018015" departLane="best" departSpeed="max" departPos="random"/>
    <trip id="85" depart="255.00" from="690320596" to="-26131807#4" departLane="best" departSpeed="max" departPos="random"/>
    <trip id="86" depart="258.00" from="-200733758" to="1259664881#0" departLane="best" departSpeed="max" departPos="random"/>
    <trip id="87" depart="261.00" from="1216995274#0" to="1351981290" departLane="best" departSpeed="max" departPos="random"/>
    <trip id="88" depart="264.00" from="410951184" to="27575621" departLane="best" departSpeed="max" departPos="random"/>
    <trip id="89" depart="267.00" from="927548614" to="-20261961#0" departLane="best" departSpeed="max" departPos="random"/>
    <trip id="90" depart="270.00" from="-927593033" to="-88308866#1" departLane="best" departSpeed="max" departPos="random"/>
    <trip id="91" depart="273.00" from="696489862" to="-47800701#0" departLane="best" departSpeed="max" departPos="random"/>
    <trip id="92" depart="276.00" from="-26765698" to="130822234#15" departLane="best" departSpeed="max" departPos="random"/>
    <trip id="93" depart="279.00" from="120623183#0" to="-691529215" departLane="best" departSpeed="max" departPos="random"/>
    <trip id="94" depart="282.00" from="130820269#6" to="696529206#4" departLane="best" departSpeed="max" departPos="random"/>
    <trip id="95" depart="285.00" from="20261961#3" to="-148818702#0" departLane="best" departSpeed="max" departPos="random"/>
    <trip id="96" depart="288.00" from="97690902#0" to="695653152#0" departLane="best" departSpeed="max" departPos="random"/>
    <trip id="97" depart="291.00" from="90564603#0" to="88308917#0" departLane="best" departSpeed="max" departPos="random"/>
    <trip id="98" depart="294.00" from="695717819#0" to="-24028363#2" departLane="best" departSpeed="max" departPos="random"/>
    <trip id="99" depart="297.00" from="148852734#0" to="-323014717" departLane="best" departSpeed="max" departPos="random"/>
    <trip id="100" depart="300.00" from="-927523633" to="-170345943#2" departLane="best" departSpeed="max" departPos="random"/>
    <trip id="101" depart="303.00" from="-90447869#0" to="927523633" departLane="best" departSpeed="max" departPos="random"/>
    <trip id="102" depart="306.00" from="-688947790#2" to="689012456#5" departLane="best" departSpeed="max" departPos="random"/>
    <trip id="103" depart="309.00" from="130845502#4" to="1216995275#0" departLane="best" departSpeed="max" departPos="random"/>
    <trip id="104" depart="312.00" from="90447863#2" to="964527935#0" departLane="best" departSpeed="max" departPos="random"/>
    <trip id="105" depart="315.00" from="21023876#1" to="395857693#1" departLane="best" departSpeed="max" departPos="random"/>
    <trip id="106" depart="318.00" from="-23784448#2" to="-696723065" departLane="best" departSpeed="max" departPos="random"/>
    <trip id="107" depart="321.00" from="90564601#3" to="22882547#0" departLane="best" departSpeed="max" departPos="random"/>
    <trip id="108" depart="324.00" from="199989363#0" to="56049253" departLane="best" departSpeed="max" departPos="random"/>
    <trip id="109" depart="327.00" from="-148852735" to="22882580#4" departLane="best" departSpeed="max" departPos="random"/>
    <trip id="110" depart="330.00" from="193294052" to="696250233#0" departLane="best" departSpeed="max" departPos="random"/>
    <trip id="111" depart="333.00" from="-23976417#1" to="90447863#8" departLane="best" departSpeed="max" departPos="random"/>
    <trip id="112" depart="336.00" from="-19822414#3" to="-259644271#0" departLane="best" departSpeed="max" departPos="random"/>
    <trip id="113" depart="339.00" from="22943156" to="300644153#0" departLane="best" departSpeed="max" departPos="random"/>
    <trip id="114" depart="342.00" from="-47484417" to="-22882566#0" departLane="best" departSpeed="max" departPos="random"/>
    <trip id="115" depart="345.00" from="699544170" to="-47484424" departLane="best" departSpeed="max" departPos="random"/>
    <trip id="116" depart="348.00" from="22943137#2" to="235769649#2" departLane="best" departSpeed="max" departPos="random"/>
    <trip id="117" depart="351.00" from="1173215033" to="22882580#1" departLane="best" departSpeed="max" departPos="random"/>
    <trip id="118" depart="354.00" from="19870098#10" to="90424408#0" departLane="best" departSpeed="max" departPos="random"/>
    <trip id="119" depart="357.00" from="-319826226" to="389877897" departLane="best" departSpeed="max" departPos="random"/>
    <trip id="120" depart="360.00" from="-47484434#0" to="-927524289" departLane="best" departSpeed="max" departPos="random"/>
    <trip id="121" depart="363.00" from="26827485" to="-696788080" departLane="best" departSpeed="max" departPos="random"/>
    <trip id="122" depart="366.00" from="-726599433#1" to="635483486#0" departLane="best" departSpeed="max" departPos="random"/>
    <trip id="123" depart="369.00" from="-19821233#5" to="1308959867#0" departLane="best" departSpeed="max" departPos="random"/>
    <trip id="124" depart="372.00" from="97690869#1" to="965528711#0" departLane="best" departSpeed="max" departPos="random"/>
    <trip id="125" depart="375.00" from="-19821513#3" to="-322992967" departLane="best" departSpeed="max" departPos="random"/>
    <trip id="126" depart="378.00" from="-688947790#2" to="90424407#4" departLane="best" departSpeed="max" departPos="random"/>
    <trip id="127" depart="381.00" from="697842144" to="697862993" departLane="best" departSpeed="max" departPos="random"/>
    <trip id="128" depart="384.00" from="-90447856#2" to="-238831475" departLane="best" departSpeed="max" departPos="random"/>
    <trip id="129" depart="387.00" from="695501177#0" to="381427099" departLane="best" departSpeed="max" departPos="random"/>
    <trip id="130" depart="390.00" from="23035682#6" to="927608792" departLane="best" departSpeed="max" departPos="random"/>
    <trip id="131" depart="393.00" from="253934429#3" to="-1237215041#5" departLane="best" departSpeed="max" departPos="random"/>
    <trip id="132" depart="396.00" from="691529216#1" to="-696754752" departLane="best" departSpeed="max" departPos="random"/>
    <trip id="133" depart="399.00" from="26131799#0" to="90429211#2" departLane="best" departSpeed="max" departPos="random"/>
    <trip id="134" depart="402.00" from="-22943251#3" to="-22882543#2" departLane="best" departSpeed="max" departPos="random"/>
    <trip id="135" depart="405.00" from="-22376433#3" to="21023876#0" departLane="best" departSpeed="max" departPos="random"/>
    <trip id="136" depart="408.00" from="-690272655#0" to="23025882#11" departLane="best" departSpeed="max" departPos="random"/>
    <trip id="137" depart="411.00" from="38429642#0" to="-278036591" departLane="best" departSpeed="max" departPos="random"/>
    <trip id="138" depart="414.00" from="24028363#0" to="-688752796#1" departLane="best" departSpeed="max" departPos="random"/>
    <trip id="139" depart="417.00" from="164438340#0" to="77991175#6" departLane="best" departSpeed="max" departPos="random"/>
    <trip id="140" depart="420.00" from="695717809#0" to="-199956853#1" departLane="best" departSpeed="max" departPos="random"/>
    <trip id="141" depart="423.00" from="1216995274#0" to="-690272657#3" departLane="best" departSpeed="max" departPos="random"/>
    <trip id="142" depart="426.00" from="-115131706#1" to="688947788" departLane="best" departSpeed="max" departPos="random"/>
    <trip id="143" depart="429.00" from="24028414#0" to="-650715007#1" departLane="best" departSpeed="max" departPos="random"/>
    <trip id="144" depart="432.00" from="47484426#2" to="206087971" departLane="best" departSpeed="max" departPos="random"/>
    <trip id="145" depart="435.00" from="1237215043#2" to="-1237215042#9" departLane="best" departSpeed="max" departPos="random"/>
    <trip id="146" depart="438.00" from="-19821525#7" to="698775807" departLane="best" departSpeed="max" departPos="random"/>
    <trip id="147" depart="441.00" from="75608979#0" to="200442617#4" departLane="best" departSpeed="max" departPos="random"/>
    <trip id="148" depart="444.00" from="695503350" to="22882566#3" departLane="best" departSpeed="max" departPos="random"/>
    <trip id="149" depart="447.00" from="-23311564#2" to="-22943113#0" departLane="best" departSpeed="max" departPos="random"/>
    <trip id="150" depart="450.00" from="-699538610#4" to="75608978#0" departLane="best" departSpeed="max" departPos="random"/>
    <trip id="151" depart="453.00" from="733131379" to="-319826220#2" departLane="best" departSpeed="max" departPos="random"/>
    <trip id="152" depart="456.00" from="688956452#5" to="699538611#1" departLane="best" departSpeed="max" departPos="random"/>
    <trip id="153" depart="459.00" from="-927687402" to="23784447#0" departLane="best" departSpeed="max" departPos="random"/>
    <trip id="154" depart="462.00" from="-23784447#2" to="90424394#1" departLane="best" departSpeed="max" departPos="random"/>
    <trip id="155" depart="465.00" from="696529205#1" to="90564609#7" departLane="best" departSpeed="max" departPos="random"/>
    <trip id="156" depart="468.00" from="690320632" to="698771379" departLane="best" departSpeed="max" departPos="random"/>
    <trip id="157" depart="471.00" from="-130820269#2" to="482770364#10" departLane="best" departSpeed="max" departPos="random"/>
    <trip id="158" depart="474.00" from="-85003034#1" to="90424397#2" departLane="best" departSpeed="max" departPos="random"/>
    <trip id="159" depart="477.00" from="689960225#5" to="696723276" departLane="best" departSpeed="max" departPos="random"/>
    <trip id="160" depart="480.00" from="690320632" to="-688758276#2" departLane="best" departSpeed="max" departPos="random"/>
    <trip id="161" depart="483.00" from="689012455#0" to="-22376433#6" departLane="best" departSpeed="max" departPos="random"/>
    <trip id="162" depart="486.00" from="696788080" to="696489863" departLane="best" departSpeed="max" departPos="random"/>
    <trip id="163" depart="489.00" from="-38429630#1" to="692272758#0" departLane="best" departSpeed="max" departPos="random"/>
    <trip id="164" depart="492.00" from="1312173240#5" to="-698102296#0" departLane="best" departSpeed="max" departPos="random"/>
    <trip id="165" depart="495.00" from="689206999" to="-38429629#1" departLane="best" departSpeed="max" departPos="random"/>
    <trip id="166" depart="498.00" from="-130819415#3" to="-266301703" departLane="best" departSpeed="max" departPos="random"/>
    <trip id="167" depart="501.00" from="-79888971#5" to="696724411#0" departLane="best" departSpeed="max" departPos="random"/>
    <trip id="168" depart="504.00" from="90564598#0" to="-691529216#2" departLane="best" departSpeed="max" departPos="random"/>
    <trip id="169" depart="507.00" from="241444590#0" to="-927634852" departLane="best" departSpeed="max" departPos="random"/>
    <trip id="170" depart="510.00" from="927508841" to="19979947#0" departLane="best" departSpeed="max" departPos="random"/>
    <trip id="171" depart="513.00" from="90429191#2" to="-22882543#2" departLane="best" departSpeed="max" departPos="random"/>
    <trip id="172" depart="516.00" from="90564607" to="-250699717#1" departLane="best" departSpeed="max" departPos="random"/>
    <trip id="173" depart="519.00" from="90447872" to="-688758273#0" departLane="best" departSpeed="max" departPos="random"/>
    <trip id="174" depart="522.00" from="-22751277#3" to="1267029558#0" departLane="best" departSpeed="max" departPos="random"/>
    <trip id="175" depart="525.00" from="40349240#1" to="-699576529" departLane="best" departSpeed="max" departPos="random"/>
    <trip id="176" depart="528.00" from="23001836" to="19821513#8" departLane="best" departSpeed="max" departPos="random"/>
    <trip id="177" depart="531.00" from="-90447893#0" to="22882544#0" departLane="best" departSpeed="max" departPos="random"/>
    <trip id="178" depart="534.00" from="-642034966" to="38429636" departLane="best" departSpeed="max" departPos="random"/>
    <trip id="179" depart="537.00" from="-1126916437" to="88308910#1" departLane="best" departSpeed="max" departPos="random"/>
    <trip id="180" depart="540.00" from="199924293" to="40349240#0" departLane="best" departSpeed="max" departPos="random"/>
    <trip id="181" depart="543.00" from="47484432" to="27575551#3" departLane="best" departSpeed="max" departPos="random"/>
    <trip id="182" depart="546.00" from="-90447843#6" to="-19821181#2" departLane="best" departSpeed="max" departPos="random"/>
    <trip id="183" depart="549.00" from="26131807#0" to="-79888971#5" departLane="best" departSpeed="max" departPos="random"/>
    <trip id="184" depart="552.00" from="-700448563#0" to="696184906" departLane="best" departSpeed="max" departPos="random"/>
    <trip id="185" depart="555.00" from="38429675#3" to="-696935168" departLane="best" departSpeed="max" departPos="random"/>
    <trip id="186" depart="558.00" from="-699540633" to="-97690869#2" departLane="best" departSpeed="max" departPos="random"/>
    <trip id="187" depart="561.00" from="-927584809" to="-696531290#1" departLane="best" departSpeed="max" departPos="random"/>
    <trip id="188" depart="564.00" from="-22943113#1" to="120623183#3" departLane="best" departSpeed="max" departPos="random"/>
    <trip id="189" depart="567.00" from="90429198#2" to="302532518#12" departLane="best" departSpeed="max" departPos="random"/>
    <trip id="190" depart="570.00" from="75608978#0" to="233738948#1" departLane="best" departSpeed="max" departPos="random"/>
    <trip id="191" depart="573.00" from="-697036130" to="20261961#1" departLane="best" departSpeed="max" departPos="random"/>
    <trip id="192" depart="576.00" from="-1028906331#3" to="-695653143#1" departLane="best" departSpeed="max" departPos="random"/>
    <trip id="193" depart="579.00" from="1259664877#15" to="22882548#0" departLane="best" departSpeed="max" departPos="random"/>
    <trip id="194" depart="582.00" from="257304232" to="1350638699" departLane="best" departSpeed="max" departPos="random"/>
    <trip id="195" depart="585.00" from="130820269#3" to="-323014717" departLane="best" departSpeed="max" departPos="random"/>
    <trip id="196" depart="588.00" from="138507645#0" to="75608981#0" departLane="best" departSpeed="max" departPos="random"/>
    <trip id="197" depart="591.00" from="689207001" to="-24028666#13" departLane="best" departSpeed="max" departPos="random"/>
    <trip id="198" depart="594.00" from="-19873475#7" to="19822393#1" departLane="best" departSpeed="max" departPos="random"/>
    <trip id="199" depart="597.00" from="24028346#0" to="-87105623#1" departLane="best" departSpeed="max" departPos="random"/>
    <trip id="200" depart="600.00" from="691529216#7" to="627946321#0" departLane="best" departSpeed="max" departPos="random"/>
    <trip id="201" depart="603.00" from="26827520#0" to="-381431263#3" departLane="best" departSpeed="max" departPos="random"/>
    <trip id="202" depart="606.00" from="-302532518#17" to="-130822234#18" departLane="best" departSpeed="max" departPos="random"/>
    <trip id="203" depart="609.00" from="-55692096#0" to="138507652#1" departLane="best" departSpeed="max" departPos="random"/>
    <trip id="204" depart="612.00" from="695731707" to="-19821513#7" departLane="best" departSpeed="max" departPos="random"/>
    <trip id="205" depart="615.00" from="1067081764" to="24028363#1" departLane="best" departSpeed="max" departPos="random"/>
    <trip id="206" depart="618.00" from="-269499258" to="342886918#7" departLane="best" departSpeed="max" departPos="random"/>
    <trip id="207" depart="621.00" from="188707184" to="-47484419#0" departLane="best" departSpeed="max" departPos="random"/>
    <trip id="208" depart="624.00" from="258507390#2" to="-120623183#2" departLane="best" departSpeed="max" departPos="random"/>
    <trip id="209" depart="627.00" from="538393177#0" to="688946352#1" departLane="best" departSpeed="max" departPos="random"/>
    <trip id="210" depart="630.00" from="-22376433#1" to="1237215042#0" departLane="best" departSpeed="max" departPos="random"/>
    <trip id="211" depart="633.00" from="-250699722#0" to="90447863#17" departLane="best" departSpeed="max" departPos="random"/>
    <trip id="212" depart="636.00" from="19822582#1" to="-148818701#2" departLane="best" departSpeed="max" departPos="random"/>
    <trip id="213" depart="639.00" from="-56049264" to="696192799#1" departLane="best" departSpeed="max" departPos="random"/>
    <trip id="214" depart="642.00" from="1308959868#0" to="690320592#0" departLane="best" departSpeed="max" departPos="random"/>
    <trip id="215" depart="645.00" from="263325455#0" to="927608950#0" departLane="best" departSpeed="max" departPos="random"/>
    <trip id="216" depart="648.00" from="22943159#0" to="90447846" departLane="best" departSpeed="max" departPos="random"/>
    <trip id="217" depart="651.00" from="699556703" to="23311634#0" departLane="best" departSpeed="max" departPos="random"/>
    <trip id="218" depart="654.00" from="38429675#2" to="19793641#2" departLane="best" departSpeed="max" departPos="random"/>
    <trip id="219" depart="657.00" from="693637905#0" to="20261961#1" departLane="best" departSpeed="max" departPos="random"/>
    <trip id="220" depart="660.00" from="72739202" to="55692095#2" departLane="best" departSpeed="max" departPos="random"/>
    <trip id="221" depart="663.00" from="138507652#1" to="-635483486#6" departLane="best" departSpeed="max" departPos="random"/>
    <trip id="222" depart="666.00" from="-557105492" to="24223248#0" departLane="best" departSpeed="max" departPos="random"/>
    <trip id="223" depart="669.00" from="642034964#1" to="19870098#0" departLane="best" departSpeed="max" departPos="random"/>
    <trip id="224" depart="672.00" from="238831475" to="-690272655#0" departLane="best" departSpeed="max" departPos="random"/>
    <trip id="225" depart="675.00" from="-19822293" to="-695515422#0" departLane="best" departSpeed="max" departPos="random"/>
    <trip id="226" depart="678.00" from="-689705121" to="-740679365#2" departLane="best" departSpeed="max" departPos="random"/>
    <trip id="227" depart="681.00" from="199956853#0" to="-22943292#4" departLane="best" departSpeed="max" departPos="random"/>
    <trip id="228" depart="684.00" from="-402814731#1" to="342881869#9" departLane="best" departSpeed="max" departPos="random"/>
    <trip id="229" depart="687.00" from="36812785#11" to="-193292262#1" departLane="best" departSpeed="max" departPos="random"/>
    <trip id="230" depart="690.00" from="-948889608" to="200132438#1" departLane="best" departSpeed="max" departPos="random"/>
    <trip id="231" depart="693.00" from="1204841859" to="77991175#5" departLane="best" departSpeed="max" departPos="random"/>