<?xml version="1.0" encoding="UTF-8"?>

<!-- generated on 2025-08-18 14:19:49.816062 by randomTrips.py UNKNOWN
<configuration>
    <net-file value="osm.net.xml.gz"/>
    <output-trip-file value="trips_med.rou.xml"/>
    <trip-attributes value="departLane=&quot;best&quot; departSpeed=&quot;max&quot; departPos=&quot;random&quot;"/>
    <validate value="True"/>
    <period value="1.8"/>
</configuration>
-->

<routes xmlns:xsi="http://www.w3.org/2001/XMLSchema-instance" xsi:noNamespaceSchemaLocation="http://sumo.dlr.de/xsd/routes_file.xsd">
    <trip id="0" depart="0.00" from="155884413#6" to="-155875650#4" departLane="best" departSpeed="max" departPos="random"/>
    <trip id="1" depart="1.80" from="-175562299#1" to="-175561488#10" departLane="best" departSpeed="max" departPos="random"/>
    <trip id="2" depart="3.60" from="175561488#5" to="174274266#0" departLane="best" departSpeed="max" departPos="random"/>
    <trip id="3" depart="5.40" from="183224582#0" to="-155875790#10" departLane="best" departSpeed="max" departPos="random"/>
    <trip id="4" depart="7.20" from="-278539496" to="-155875658#2" departLane="best" departSpeed="max" departPos="random"/>
    <trip id="5" depart="9.00" from="-175561402#0" to="155875644#4" departLane="best" departSpeed="max" departPos="random"/>
    <trip id="6" depart="10.80" from="-155875650#5" to="-175560823#4" departLane="best" departSpeed="max" departPos="random"/>
    <trip id="7" depart="12.60" from="155884444" to="155875708" departLane="best" departSpeed="max" departPos="random"/>
    <trip id="8" depart="14.40" from="-175561442#0" to="155875850#2" departLane="best" departSpeed="max" departPos="random"/>
    <trip id="9" depart="16.20" from="175562758#13" to="-155875620#2" departLane="best" departSpeed="max" departPos="random"/>
    <trip id="10" depart="18.00" from="175562720#1" to="175561246" departLane="best" departSpeed="max" departPos="random"/>
    <trip id="11" depart="19.80" from="-175563102#5" to="-155884528#1" departLane="best" departSpeed="max" departPos="random"/>
    <trip id="12" depart="21.60" from="557168426#1" to="-175563102#15" departLane="best" departSpeed="max" departPos="random"/>
    <trip id="13" depart="23.40" from="-155875797#1" to="-155875802#1" departLane="best" departSpeed="max" departPos="random"/>
    <trip id="14" depart="25.20" from="175563102#2" to="155875883#4" departLane="best" departSpeed="max" departPos="random"/>
    <trip id="15" depart="27.00" from="175562758#0" to="175561841" departLane="best" departSpeed="max" departPos="random"/>
    <trip id="16" depart="28.80" from="155875659#0" to="630498041" departLane="best" departSpeed="max" departPos="random"/>
    <trip id="17" depart="30.60" from="-183224538" to="155875733#5" departLane="best" departSpeed="max" departPos="random"/>
    <trip id="18" depart="32.40" from="175562949#3" to="155884413#2" departLane="best" departSpeed="max" departPos="random"/>
    <trip id="19" depart="34.20" from="175584966" to="155875797#11" departLane="best" departSpeed="max" departPos="random"/>
    <trip id="20" depart="36.00" from="175560823#13" to="-155875675#2" departLane="best" departSpeed="max" departPos="random"/>
    <trip id="21" depart="37.80" from="-175561488#4" to="-175562604#0" departLane="best" departSpeed="max" departPos="random"/>
    <trip id="22" depart="39.60" from="-155875743#2" to="-175561508#4" departLane="best" departSpeed="max" departPos="random"/>
    <trip id="23" depart="41.40" from="-155875821" to="-175562308" departLane="best" departSpeed="max" departPos="random"/>
    <trip id="24" depart="43.20" from="155884412#0" to="-175585016" departLane="best" departSpeed="max" departPos="random"/>
    <trip id="25" depart="45.00" from="-175585037#1" to="-175561028" departLane="best" departSpeed="max" departPos="random"/>
    <trip id="26" depart="46.80" from="-175562216#0" to="496758030#0" departLane="best" departSpeed="max" departPos="random"/>
    <trip id="27" depart="48.60" from="155884438#1" to="155884384#2" departLane="best" departSpeed="max" departPos="random"/>
    <trip id="28" depart="50.40" from="-173941212#0" to="175561830#0" departLane="best" departSpeed="max" departPos="random"/>
    <trip id="29" depart="52.20" from="-155884554#0" to="-183224558" departLane="best" departSpeed="max" departPos="random"/>
    <trip id="30" depart="54.00" from="729271571#0" to="155884519#1" departLane="best" departSpeed="max" departPos="random"/>
    <trip id="31" depart="55.80" from="155875685#4" to="175560823#5" departLane="best" departSpeed="max" departPos="random"/>
    <trip id="32" depart="57.60" from="175563094#0" to="175562535" departLane="best" departSpeed="max" departPos="random"/>
    <trip id="33" depart="59.40" from="-175561488#7" to="-155875659#1" departLane="best" departSpeed="max" departPos="random"/>
    <trip id="34" depart="61.20" from="-175562911" to="-175562233#0" departLane="best" departSpeed="max" departPos="random"/>
    <trip id="35" depart="63.00" from="-175561183" to="557162422" departLane="best" departSpeed="max" departPos="random"/>
    <trip id="36" depart="64.80" from="175585026#0" to="-175562918#0" departLane="best" departSpeed="max" departPos="random"/>
    <trip id="37" depart="66.60" from="155884475" to="-239350182#1" departLane="best" departSpeed="max" departPos="random"/>
    <trip id="38" depart="68.40" from="278539444" to="-627053238#0" departLane="best" departSpeed="max" departPos="random"/>
    <trip id="39" depart="70.20" from="-175562182#0" to="-175561957" departLane="best" departSpeed="max" departPos="random"/>
    <trip id="40" depart="72.00" from="155875695#1" to="-175562144#1" departLane="best" departSpeed="max" departPos="random"/>
    <trip id="41" depart="73.80" from="155875747#1" to="278539459" departLane="best" departSpeed="max" departPos="random"/>
    <trip id="42" depart="75.60" from="-239350182#2" to="-175561402#1" departLane="best" departSpeed="max" departPos="random"/>
    <trip id="43" depart="77.40" from="992079381#1" to="155875650#3" departLane="best" departSpeed="max" departPos="random"/>
    <trip id="44" depart="79.20" from="-155875790#6" to="-155875675#5" departLane="best" departSpeed="max" departPos="random"/>
    <trip id="45" depart="81.00" from="-155875868#0" to="155884427#7" departLane="best" departSpeed="max" departPos="random"/>
    <trip id="46" depart="82.80" from="175562395#0" to="-278539529#2" departLane="best" departSpeed="max" departPos="random"/>
    <trip id="47" depart="84.60" from="-155875720" to="-183224582#0" departLane="best" departSpeed="max" departPos="random"/>
    <trip id="48" depart="86.40" from="746275618#4" to="155875673#1" departLane="best" departSpeed="max" departPos="random"/>
    <trip id="49" depart="88.20" from="627053238#0" to="175585039#2" departLane="best" departSpeed="max" departPos="random"/>
    <trip id="50" depart="90.00" from="-155875623#22" to="175561508#8" departLane="best" departSpeed="max" departPos="random"/>
    <trip id="51" depart="91.80" from="173941393#1" to="155875685#2" departLane="best" departSpeed="max" departPos="random"/>
    <trip id="52" depart="93.60" from="-175562202" to="155884528#1" departLane="best" departSpeed="max" departPos="random"/>
    <trip id="53" depart="95.40" from="-155875870#1" to="-376769519" departLane="best" departSpeed="max" departPos="random"/>
    <trip id="54" depart="97.20" from="-557162416" to="557168432" departLane="best" departSpeed="max" departPos="random"/>
    <trip id="55" depart="99.00" from="175585022" to="-175562158" departLane="best" departSpeed="max" departPos="random"/>
    <trip id="56" depart="100.80" from="-746275618#2" to="-173941602#1" departLane="best" departSpeed="max" departPos="random"/>
    <trip id="57" depart="102.60" from="278539430#1" to="183224564" departLane="best" departSpeed="max" departPos="random"/>
    <trip id="58" depart="104.40" from="-175562745#1" to="155884516#0" departLane="best" departSpeed="max" departPos="random"/>
    <trip id="59" depart="106.20" from="155875854#1" to="-155884515" departLane="best" departSpeed="max" departPos="random"/>
    <trip id="60" depart="108.00" from="175561981#1" to="155875685#9" departLane="best" departSpeed="max" departPos="random"/>
    <trip id="61" depart="109.80" from="175562239#1" to="155875675#1" departLane="best" departSpeed="max" departPos="random"/>
    <trip id="62" depart="111.60" from="-1348920376#1" to="-175563009" departLane="best" departSpeed="max" departPos="random"/>
    <trip id="63" depart="113.40" from="-155875639#2" to="278539551#1" departLane="best" departSpeed="max" departPos="random"/>
    <trip id="64" depart="115.20" from="175585037#0" to="175563125#1" departLane="best" departSpeed="max" departPos="random"/>
    <trip id="65" depart="117.00" from="-175562774#3" to="-155875704" departLane="best" departSpeed="max" departPos="random"/>
    <trip id="66" depart="118.80" from="175585034" to="557166346#7" departLane="best" departSpeed="max" departPos="random"/>
    <trip id="67" depart="120.60" from="-155875782#3" to="155875615#0" departLane="best" departSpeed="max" departPos="random"/>
    <trip id="68" depart="122.40" from="-155875735#1" to="175562286" departLane="best" departSpeed="max" departPos="random"/>
    <trip id="69" depart="124.20" from="175562032#0" to="-155884410#0" departLane="best" departSpeed="max" departPos="random"/>
    <trip id="70" depart="126.00" from="-623710421" to="155875730#4" departLane="best" departSpeed="max" departPos="random"/>
    <trip id="71" depart="127.80" from="-175562182#1" to="183224582#2" departLane="best" departSpeed="max" departPos="random"/>
    <trip id="72" depart="129.60" from="-278539501" to="-175561183" departLane="best" departSpeed="max" departPos="random"/>
    <trip id="73" depart="131.40" from="155875663#2" to="175561843#1" departLane="best" departSpeed="max" departPos="random"/>
    <trip id="74" depart="133.20" from="746275618#1" to="155884557#0" departLane="best" departSpeed="max" departPos="random"/>
    <trip id="75" depart="135.00" from="-278539547#1" to="155875659#2" departLane="best" departSpeed="max" departPos="random"/>
    <trip id="76" depart="136.80" from="-155884381#0" to="-175561488#14" departLane="best" departSpeed="max" departPos="random"/>
    <trip id="77" depart="138.60" from="-175563102#14" to="155875850#0" departLane="best" departSpeed="max" departPos="random"/>
    <trip id="78" depart="140.40" from="-175561508#0" to="-175561433" departLane="best" departSpeed="max" departPos="random"/>
    <trip id="79" depart="142.20" from="-155875735#6" to="155884448" departLane="best" departSpeed="max" departPos="random"/>
    <trip id="80" depart="144.00" from="-175561488#7" to="278539486" departLane="best" departSpeed="max" departPos="random"/>
    <trip id="81" depart="145.80" from="175584961#5" to="-155875736#1" departLane="best" departSpeed="max" departPos="random"/>
    <trip id="82" depart="147.60" from="-175561666" to="173941985#3" departLane="best" departSpeed="max" departPos="random"/>
    <trip id="83" depart="149.40" from="-175561364#0" to="-155884413#3" departLane="best" departSpeed="max" departPos="random"/>
    <trip id="84" depart="151.20" from="278539536" to="155875785#1" departLane="best" departSpeed="max" departPos="random"/>
    <trip id="85" depart="153.00" from="-623710417#3" to="175562718#1" departLane="best" departSpeed="max" departPos="random"/>
    <trip id="86" depart="154.80" from="175562758#1" to="-174032654#0" departLane="best" departSpeed="max" departPos="random"/>
    <trip id="87" depart="156.60" from="-155875797#8" to="-278539547#0" departLane="best" departSpeed="max" departPos="random"/>
    <trip id="88" depart="158.40" from="-278539502" to="-67152547#1" departLane="best" departSpeed="max" departPos="random"/>
    <trip id="89" depart="160.20" from="175561442#1" to="173942218#2" departLane="best" departSpeed="max" departPos="random"/>
    <trip id="90" depart="162.00" from="-239350183" to="-175563102#7" departLane="best" departSpeed="max" departPos="random"/>
    <trip id="91" depart="163.80" from="175584966" to="-175561973#0" departLane="best" departSpeed="max" departPos="random"/>
    <trip id="92" depart="165.60" from="-174032654#0" to="-612501639#0" departLane="best" departSpeed="max" departPos="random"/>
    <trip id="93" depart="167.40" from="-278539496" to="-175562322" departLane="best" departSpeed="max" departPos="random"/>
    <trip id="94" depart="169.20" from="-175561973#11" to="278539541#1" departLane="best" departSpeed="max" departPos="random"/>
    <trip id="95" depart="171.00" from="-278557254" to="175585039#3" departLane="best" departSpeed="max" departPos="random"/>
    <trip id="96" depart="172.80" from="155875675#1" to="-155875685#11" departLane="best" departSpeed="max" departPos="random"/>
    <trip id="97" depart="174.60" from="992079385#0" to="175584951" departLane="best" departSpeed="max" departPos="random"/>
    <trip id="98" depart="176.40" from="623710417#4" to="278539546#1" departLane="best" departSpeed="max" departPos="random"/>
    <trip id="99" depart="178.20" from="175563102#5" to="-170844796#3" departLane="best" departSpeed="max" departPos="random"/>
    <trip id="100" depart="180.00" from="-669041722#6" to="-175561297#2" departLane="best" departSpeed="max" departPos="random"/>
    <trip id="101" depart="181.80" from="-239350182#6" to="-155875706" departLane="best" departSpeed="max" departPos="random"/>
    <trip id="102" depart="183.60" from="-183224549" to="67792326" departLane="best" departSpeed="max" departPos="random"/>
    <trip id="103" depart="185.40" from="-175562182#1" to="175562718#0" departLane="best" departSpeed="max" departPos="random"/>
    <trip id="104" depart="187.20" from="-557162423" to="-278539531" departLane="best" departSpeed="max" departPos="random"/>
    <trip id="105" depart="189.00" from="557168426#1" to="746275618#1" departLane="best" departSpeed="max" departPos="random"/>
    <trip id="106" depart="190.80" from="155875685#12" to="175561508#2" departLane="best" departSpeed="max" departPos="random"/>
    <trip id="107" depart="192.60" from="-155884516#1" to="-175562733" departLane="best" departSpeed="max" departPos="random"/>
    <trip id="108" depart="194.40" from="623710417#3" to="155875797#3" departLane="best" departSpeed="max" departPos="random"/>
    <trip id="109" depart="196.20" from="155875667#7" to="175562088#0" departLane="best" departSpeed="max" departPos="random"/>
    <trip id="110" depart="198.00" from="-155875687#3" to="155875817#0" departLane="best" departSpeed="max" departPos="random"/>
    <trip id="111" depart="199.80" from="-992079382#1" to="175585007#1" departLane="best" departSpeed="max" departPos="random"/>
    <trip id="112" depart="201.60" from="-155884528#2" to="612501647#3" departLane="best" departSpeed="max" departPos="random"/>
    <trip id="113" depart="203.40" from="-155875743#3" to="-173942126#1" departLane="best" departSpeed="max" departPos="random"/>
    <trip id="114" depart="205.20" from="155875790#9" to="174032652#3" departLane="best" departSpeed="max" departPos="random"/>
    <trip id="115" depart="207.00" from="-175561529" to="-155884381#6" departLane="best" departSpeed="max" departPos="random"/>
    <trip id="116" depart="208.80" from="183224562" to="-175561942" departLane="best" departSpeed="max" departPos="random"/>
    <trip id="117" depart="210.60" from="155875790#8" to="155884413#4" departLane="best" departSpeed="max" departPos="random"/>
    <trip id="118" depart="212.40" from="-278539488#0" to="155875816" departLane="best" departSpeed="max" departPos="random"/>
    <trip id="119" depart="214.20" from="155875639#0" to="408840879#1" departLane="best" departSpeed="max" departPos="random"/>
    <trip id="120" depart="216.00" from="-175560877#0" to="175561502" departLane="best" departSpeed="max" departPos="random"/>
    <trip id="121" depart="217.80" from="-175561753#0" to="-239350182#10" departLane="best" departSpeed="max" departPos="random"/>
    <trip id="122" depart="219.60" from="170844796#12" to="-175562758#2" departLane="best" departSpeed="max" departPos="random"/>
    <trip id="123" depart="221.40" from="-175562918#1" to="175562170" departLane="best" departSpeed="max" departPos="random"/>
    <trip id="124" depart="223.20" from="-155875736#1" to="-623710421" departLane="best" departSpeed="max" departPos="random"/>
    <trip id="125" depart="225.00" from="992079383" to="746275618#3" departLane="best" departSpeed="max" departPos="random"/>
    <trip id="126" depart="226.80" from="-155875738#1" to="-175561297#1" departLane="best" departSpeed="max" departPos="random"/>
    <trip id="127" depart="228.60" from="-175562182#1" to="376769519" departLane="best" departSpeed="max" departPos="random"/>
    <trip id="128" depart="230.40" from="175585039#2" to="183224606#2" departLane="best" departSpeed="max" departPos="random"/>
    <trip id="129" depart="232.20" from="-175585034" to="-155884539#0" departLane="best" departSpeed="max" departPos="random"/>
    <trip id="130" depart="234.00" from="175563001#3" to="175561396" departLane="best" departSpeed="max" departPos="random"/>
    <trip id="131" depart="235.80" from="155875858#2" to="68521369#1" departLane="best" departSpeed="max" departPos="random"/>
    <trip id="132" depart="237.60" from="155884466" to="-155875623#12" departLane="best" departSpeed="max" departPos="random"/>
    <trip id="133" depart="239.40" from="175562786#0" to="-175562758#13" departLane="best" departSpeed="max" departPos="random"/>
    <trip id="134" depart="241.20" from="155884531#3" to="557160760" departLane="best" departSpeed="max" departPos="random"/>
    <trip id="135" depart="243.00" from="-155884413#3" to="-155875883#3" departLane="best" departSpeed="max" departPos="random"/>
    <trip id="136" depart="244.80" from="-155875856#1" to="155875735#2" departLane="best" departSpeed="max" departPos="random"/>
    <trip id="137" depart="246.60" from="-175562281" to="155875890#0" departLane="best" departSpeed="max" departPos="random"/>
    <trip id="138" depart="248.40" from="175561132" to="-175560846#1" departLane="best" departSpeed="max" departPos="random"/>
    <trip id="139" depart="250.20" from="155884408" to="-175562170" departLane="best" departSpeed="max" departPos="random"/>
    <trip id="140" depart="252.00" from="-67152547#1" to="278539486" departLane="best" departSpeed="max" departPos="random"/>
    <trip id="141" depart="253.80" from="175563102#14" to="-155875797#14" departLane="best" departSpeed="max" departPos="random"/>
    <trip id="142" depart="255.60" from="-278539502" to="-175562299#7" departLane="best" departSpeed="max" departPos="random"/>
    <trip id="143" depart="257.40" from="-155875615#4" to="175562395#1" departLane="best" departSpeed="max" departPos="random"/>
    <trip id="144" depart="259.20" from="155884412#4" to="-175562138" departLane="best" departSpeed="max" departPos="random"/>
    <trip id="145" depart="261.00" from="175561508#5" to="155875733#4" departLane="best" departSpeed="max" departPos="random"/>
    <trip id="146" depart="262.80" from="-278539527#1" to="-155875623#18" departLane="best" departSpeed="max" departPos="random"/>
    <trip id="147" depart="264.60" from="-155875738#3" to="220005384#1" departLane="best" departSpeed="max" departPos="random"/>
    <trip id="148" depart="266.40" from="220005385#0" to="155875710" departLane="best" departSpeed="max" departPos="random"/>
    <trip id="149" depart="268.20" from="175563009" to="155875802#1" departLane="best" departSpeed="max" departPos="random"/>
    <trip id="150" depart="270.00" from="-155884459#1" to="-155884402" departLane="best" departSpeed="max" departPos="random"/>
    <trip id="151" depart="271.80" from="-175562776#0" to="278539463" departLane="best" departSpeed="max" departPos="random"/>
    <trip id="152" depart="273.60" from="175562505" to="175585039#2" departLane="best" departSpeed="max" departPos="random"/>
    <trip id="153" depart="275.40" from="183224606#1" to="-175561080#0" departLane="best" departSpeed="max" departPos="random"/>
    <trip id="154" depart="277.20" from="-175561973#1" to="-155875854#0" departLane="best" departSpeed="max" departPos="random"/>
    <trip id="155" depart="279.00" from="175562262" to="220005385#1" departLane="best" departSpeed="max" departPos="random"/>
    <trip id="156" depart="280.80" from="-278539444" to="155884413#7" departLane="best" departSpeed="max" departPos="random"/>
    <trip id="157" depart="282.60" from="-155884516#0" to="278539554" departLane="best" departSpeed="max" departPos="random"/>
    <trip id="158" depart="284.40" from="175584980#0" to="669041722#5" departLane="best" departSpeed="max" departPos="random"/>
    <trip id="159" depart="286.20" from="175562758#5" to="197805110#5" departLane="best" departSpeed="max" departPos="random"/>
    <trip id="160" depart="288.00" from="-155875650#0" to="175561968#3" departLane="best" departSpeed="max" departPos="random"/>
    <trip id="161" depart="289.80" from="-175563076#2" to="278557252" departLane="best" departSpeed="max" departPos="random"/>
    <trip id="162" depart="291.60" from="175562678#0" to="175585043#2" departLane="best" departSpeed="max" departPos="random"/>
    <trip id="163" depart="293.40" from="175562758#5" to="-175562216#0" departLane="best" departSpeed="max" departPos="random"/>
    <trip id="164" depart="295.20" from="175562302#1" to="-155875868#3" departLane="best" departSpeed="max" departPos="random"/>
    <trip id="165" depart="297.00" from="175585007#1" to="175585037#0" departLane="best" departSpeed="max" departPos="random"/>
    <trip id="166" depart="298.80" from="-175561488#1" to="175563040#2" departLane="best" departSpeed="max" departPos="random"/>
    <trip id="167" depart="300.60" from="-557166346#9" to="-175562774#1" departLane="best" departSpeed="max" departPos="random"/>
    <trip id="168" depart="302.40" from="175562471" to="-175561488#3" departLane="best" departSpeed="max" departPos="random"/>
    <trip id="169" depart="304.20" from="-155875646#5" to="-175560805#3" departLane="best" departSpeed="max" departPos="random"/>
    <trip id="170" depart="306.00" from="-175563040#2" to="175585043#3" departLane="best" departSpeed="max" departPos="random"/>
    <trip id="171" depart="307.80" from="612501647#3" to="-175562323#0" departLane="best" departSpeed="max" departPos="random"/>
    <trip id="172" depart="309.60" from="155884419#1" to="-239350182#7" departLane="best" departSpeed="max" departPos="random"/>
    <trip id="173" depart="311.40" from="67792311#0" to="155875685#11" departLane="best" departSpeed="max" departPos="random"/>
    <trip id="174" depart="313.20" from="278539545#1" to="-155875883#2" departLane="best" departSpeed="max" departPos="random"/>
    <trip id="175" depart="315.00" from="623710418#1" to="-173941602#1" departLane="best" departSpeed="max" departPos="random"/>
    <trip id="176" depart="316.80" from="612501643#1" to="-175562188#1" departLane="best" departSpeed="max" departPos="random"/>
    <trip id="177" depart="318.60" from="-155875858#0" to="-278557254" departLane="best" departSpeed="max" departPos="random"/>
    <trip id="178" depart="320.40" from="175561442#0" to="-175562904#3" departLane="best" departSpeed="max" departPos="random"/>
    <trip id="179" depart="322.20" from="155875845#0" to="155875653#2" departLane="best" departSpeed="max" departPos="random"/>
    <trip id="180" depart="324.00" from="-183224584#2" to="155875797#1" departLane="best" departSpeed="max" departPos="random"/>
    <trip id="181" depart="325.80" from="-175561981#3" to="175561488#1" departLane="best" departSpeed="max" departPos="random"/>
    <trip id="182" depart="327.60" from="-1348920377#2" to="278539545#3" departLane="best" departSpeed="max" departPos="random"/>
    <trip id="183" depart="329.40" from="155875663#0" to="175561508#5" departLane="best" departSpeed="max" departPos="random"/>
    <trip id="184" depart="331.20" from="175561508#7" to="173942053#0" departLane="best" departSpeed="max" departPos="random"/>
    <trip id="185" depart="333.00" from="-175585008#0" to="-155875735#9" departLane="best" departSpeed="max" departPos="random"/>
    <trip id="186" depart="334.80" from="155884539#1" to="-175563076#2" departLane="best" departSpeed="max" departPos="random"/>
    <trip id="187" depart="336.60" from="-175562904#0" to="175584987" departLane="best" departSpeed="max" departPos="random"/>
    <trip id="188" depart="338.40" from="175561227" to="-175562758#3" departLane="best" departSpeed="max" departPos="random"/>
    <trip id="189" depart="340.20" from="-239350183" to="-175562720#0" departLane="best" departSpeed="max" departPos="random"/>
    <trip id="190" depart="342.00" from="-155884390#0" to="-278539522" departLane="best" departSpeed="max" departPos="random"/>
    <trip id="191" depart="343.80" from="278539546#0" to="175560805#0" departLane="best" departSpeed="max" departPos="random"/>
    <trip id="192" depart="345.60" from="220005384#0" to="155884410#1" departLane="best" departSpeed="max" departPos="random"/>
    <trip id="193" depart="347.40" from="-175562758#13" to="155875726" departLane="best" departSpeed="max" departPos="random"/>
    <trip id="194" depart="349.20" from="-1348920376#1" to="-175562530" departLane="best" departSpeed="max" departPos="random"/>
    <trip id="195" depart="351.00" from="-278539530" to="155875797#6" departLane="best" departSpeed="max" departPos="random"/>
    <trip id="196" depart="352.80" from="155884471" to="-669041722#7" departLane="best" departSpeed="max" departPos="random"/>
    <trip id="197" depart="354.60" from="-278557252" to="-175561297#2" departLane="best" departSpeed="max" departPos="random"/>
    <trip id="198" depart="356.40" from="-623710417#4" to="278539471" departLane="best" departSpeed="max" departPos="random"/>
    <trip id="199" depart="358.20" from="175562495" to="-173941212#2" departLane="best" departSpeed="max" departPos="random"/>
    <trip id="200" depart="360.00" from="-155875782#0" to="155875658#5" departLane="best" departSpeed="max" departPos="random"/>
    <trip id="201" depart="361.80" from="155884400" to="-175563102#12" departLane="best" departSpeed="max" departPos="random"/>
    <trip id="202" depart="363.60" from="175562801#1" to="175562148#1" departLane="best" departSpeed="max" departPos="random"/>
    <trip id="203" depart="365.40" from="170844796#2" to="-175561488#14" departLane="best" departSpeed="max" departPos="random"/>
    <trip id="204" depart="367.20" from="-175560823#5" to="-155875650#3" departLane="best" departSpeed="max" departPos="random"/>
    <trip id="205" depart="369.00" from="175563102#8" to="-155875738#12" departLane="best" departSpeed="max" departPos="random"/>
    <trip id="206" depart="370.80" from="-278539477#0" to="155884440#1" departLane="best" departSpeed="max" departPos="random"/>
    <trip id="207" depart="372.60" from="-175560819#3" to="175561151" departLane="best" departSpeed="max" departPos="random"/>
    <trip id="208" depart="374.40" from="-720738693" to="-175561858#0" departLane="best" departSpeed="max" departPos="random"/>
    <trip id="209" depart="376.20" from="155884497#0" to="-155875620#0" departLane="best" departSpeed="max" departPos="random"/>
    <trip id="210" depart="378.00" from="175561830#1" to="175562377" departLane="best" departSpeed="max" departPos="random"/>
    <trip id="211" depart="379.80" from="-155875856#0" to="-278539536" departLane="best" departSpeed="max" departPos="random"/>
    <trip id="212" depart="381.60" from="-173941393#1" to="612501645#2" departLane="best" departSpeed="max" departPos="random"/>
    <trip id="213" depart="383.40" from="155875623#26" to="-155875685#10" departLane="best" departSpeed="max" departPos="random"/>
    <trip id="214" depart="385.20" from="-175561973#0" to="175584993#0" departLane="best" departSpeed="max" departPos="random"/>
    <trip id="215" depart="387.00" from="-557166336" to="175562886" departLane="best" departSpeed="max" departPos="random"/>
    <trip id="216" depart="388.80" from="155884554#0" to="68521369#3" departLane="best" departSpeed="max" departPos="random"/>
    <trip id="217" depart="390.60" from="155875797#0" to="557168424#1" departLane="best" departSpeed="max" departPos="random"/>
    <trip id="218" depart="392.40" from="183224577#0" to="155884393#0" departLane="best" departSpeed="max" departPos="random"/>
    <trip id="219" depart="394.20" from="175561211#0" to="155875644#3" departLane="best" departSpeed="max" departPos="random"/>
    <trip id="220" depart="396.00" from="175562966#2" to="155875726" departLane="best" departSpeed="max" departPos="random"/>
    <trip id="221" depart="397.80" from="183224592#2" to="175561998" departLane="best" departSpeed="max" departPos="random"/>
    <trip id="222" depart="399.60" from="-623710419" to="-175562059#3" departLane="best" departSpeed="max" departPos="random"/>
    <trip id="223" depart="401.40" from="-175561957" to="155884513#0" departLane="best" departSpeed="max" departPos="random"/>
    <trip id="224" depart="403.20" from="175562032#0" to="155875667#3" departLane="best" departSpeed="max" departPos="random"/>
    <trip id="225" depart="405.00" from="155884384#1" to="-175562299#1" departLane="best" departSpeed="max" departPos="random"/>
    <trip id="226" depart="406.80" from="-155875738#8" to="-175562471" departLane="best" departSpeed="max" departPos="random"/>
    <trip id="227" depart="408.60" from="-175562279" to="-175562966#0" departLane="best" departSpeed="max" departPos="random"/>
    <trip id="228" depart="410.40" from="155875667#0" to="-155884427#0" departLane="best" departSpeed="max" departPos="random"/>
    <trip id="229" depart="412.20" from="-175561508#11" to="175561007#1" departLane="best" departSpeed="max" departPos="random"/>
    <trip id="230" depart="414.00" from="175560823#6" to="-155875733#0" departLane="best" departSpeed="max" departPos="random"/>